[TITLE]


[JUNCTIONS]
;ID              	Elev        	Demand      	Pattern         
 J-1             	455.9993    	2.8         	1               	;
 J-10            	595.1784    	0           	1               	;
 J-100           	524.5092    	5.39        	1               	;
 J-101           	596.9546    	2.12        	1               	;
 J-102           	590.1794    	1.22        	1               	;
 J-103           	587.8557    	0.61        	1               	;
 J-104           	509.5502    	1.57        	1               	;
 J-105           	501.7983    	0.85        	1               	;
 J-106           	518.8116    	1.38        	1               	;
 J-107           	492.4018    	1.42        	1               	;
 J-109           	486.3669    	1.61        	1               	;
 J-11            	508.9102    	8.11        	1               	;
 J-110           	482.9622    	3.26        	1               	;
 J-111           	464.0534    	2.91        	1               	;
 J-112           	480.0848    	3.19        	1               	;
 J-113           	484.5578    	3.49        	1               	;
 J-114           	522.0294    	1.81        	1               	;
 J-115           	500.6847    	0.76        	1               	;
 J-116           	526.5716    	2.09        	1               	;
 J-117           	582.5688    	2.01        	1               	;
 J-118           	532.9451    	2.42        	1               	;
 J-119           	448.1282    	1.36        	1               	;
 J-12            	485.0004    	10.13       	1               	;
 J-120           	507.4623    	1.62        	1               	;
 J-121           	540.0488    	8.19        	1               	;
 J-122           	516.4416    	3.12        	1               	;
 J-123           	508.3246    	0.5         	1               	;
 J-124           	518.9949    	2.27        	1               	;
 J-125           	598.2817    	0           	1               	;
 J-126           	457.644     	1.33        	1               	;
 J-127           	498.5753    	0.86        	1               	;
 J-128           	491.4736    	2.63        	1               	;
 J-129           	444.638     	1.57        	1               	;
 J-13            	495.8325    	1.7         	1               	;
 J-130           	442         	0.73        	1               	;
 J-131           	526.585     	2.29        	1               	;
 J-132           	479.0093    	2.82        	1               	;
 J-133           	469.3847    	0.5         	1               	;
 J-134           	451.9946    	0.39        	1               	;
 J-135           	491.2834    	1.83        	1               	;
 J-136           	513.3248    	6.08        	1               	;
 J-137           	560.774     	4.91        	1               	;
 J-138           	496.6935    	0           	1               	;
 J-139           	518.2602    	0.86        	1               	;
 J-14            	500.893     	1.86        	1               	;
 J-140           	481.1981    	2.48        	1               	;
 J-141           	484.4633    	1.8         	1               	;
 J-142           	502.3007    	1.85        	1               	;
 J-143           	509.9977    	0.61        	1               	;
 J-145           	471.8571    	0.44        	1               	;
 J-146           	481.9362    	1.85        	1               	;
 J-149           	459.9394    	10.7        	1               	;
 J-15            	525.4294    	8.23        	1               	;
 J-150           	470.337     	4.54        	1               	;
 J-151           	511.761     	9.42        	1               	;
 J-152           	576.5399    	4.45        	1               	;
 J-153           	514.6708    	0.72        	1               	;
 J-154           	577.6719    	6.69        	1               	;
 J-155           	581.6533    	0.51        	1               	;
 J-159           	522.4083    	1.91        	1               	;
 J-16            	525.9792    	2.99        	1               	;
 J-160           	528.1484    	0.94        	1               	;
 J-163           	532.8851    	0.93        	1               	;
 J-164           	539.1323    	3.25        	1               	;
 J-165           	466.0002    	2.65        	1               	;
 J-166           	461.4258    	4.02        	1               	;
 J-167           	501.1688    	2.33        	1               	;
 J-168           	513.3461    	3.05        	1               	;
 J-169           	502.0866    	1.49        	1               	;
 J-17            	508.5245    	3.48        	1               	;
 J-170           	468.8607    	0.97        	1               	;
 J-171           	472.7928    	1.07        	1               	;
 J-172           	504.8509    	0.8         	1               	;
 J-173           	502.808     	0.41        	1               	;
 J-174           	500.4205    	2.07        	1               	;
 J-175           	502.6548    	1.15        	1               	;
 J-176           	514.5234    	14.5        	1               	;
 J-177           	501.0704    	14.8        	1               	;
 J-178           	508.4932    	0.87        	1               	;
 J-179           	480         	1.34        	1               	;
 J-18            	495.4805    	2.22        	1               	;
 J-180           	479.987     	1.77        	1               	;
 J-181           	516.3846    	1.45        	1               	;
 J-182           	510.2406    	1.27        	1               	;
 J-183           	510.0078    	0.8         	1               	;
 J-184           	505.1692    	3.34        	1               	;
 J-185           	507.4666    	1.49        	1               	;
 J-186           	498.4245    	1.99        	1               	;
 J-187           	497.0519    	1.23        	1               	;
 J-188           	537.1629    	0.24        	1               	;
 J-189           	539.3553    	1.19        	1               	;
 J-19            	451.4271    	2.48        	1               	;
 J-190           	528.1495    	2.14        	1               	;
 J-191           	469.3718    	2.18        	1               	;
 J-192           	484.5555    	1.2         	1               	;
 J-193           	559.3116    	1.35        	1               	;
 J-194           	570.1228    	0.28        	1               	;
 J-195           	490.7295    	0.85        	1               	;
 J-196           	494.2793    	3.03        	1               	;
 J-197           	501.5159    	0.51        	1               	;
 J-198           	512.6523    	1.83        	1               	;
 J-199           	466.0287    	0.86        	1               	;
 J-2             	478.9985    	5.8         	1               	;
 J-20            	469.1313    	2.22        	1               	;
 J-200           	462.1439    	1.59        	1               	;
 J-201           	509.6591    	0.9         	1               	;
 J-202           	496.2192    	0.84        	1               	;
 J-203           	502.6068    	2.41        	1               	;
 J-204           	510.6372    	2.12        	1               	;
 J-205           	488.3963    	2.44        	1               	;
 J-206           	481.4232    	1.24        	1               	;
 J-207           	518.3533    	12.12       	1               	;
 J-208           	528.9981    	0.99        	1               	;
 J-209           	484         	0.97        	1               	;
 J-21            	527.0889    	2.47        	1               	;
 J-210           	491.4746    	0.55        	1               	;
 J-213           	575.1281    	1.82        	1               	;
 J-214           	581.0258    	0.28        	1               	;
 J-215           	516.9788    	1           	1               	;
 J-216           	484.554     	1.81        	1               	;
 J-217           	481.1604    	1.98        	1               	;
 J-218           	479.0001    	1.26        	1               	;
 J-219           	482.7389    	1.56        	1               	;
 J-22            	492.0377    	2.28        	1               	;
 J-220           	538.1606    	2.79        	1               	;
 J-221           	569.4635    	6.81        	1               	;
 J-222           	502.0962    	1.1         	1               	;
 J-223           	480.5506    	0.92        	1               	;
 J-224           	472.7624    	1.88        	1               	;
 J-225           	471.6321    	2.37        	1               	;
 J-226           	475.1904    	1.33        	1               	;
 J-227           	490         	0.77        	1               	;
 J-228           	489.4911    	1.29        	1               	;
 J-229           	498.0078    	1.85        	1               	;
 J-23            	490.1721    	0.76        	1               	;
 J-230           	521.9763    	0.78        	1               	;
 J-231           	521.9881    	0.33        	1               	;
 J-232           	502.0344    	13.12       	1               	;
 J-233           	504.5677    	1.57        	1               	;
 J-234           	510.4407    	1.2         	1               	;
 J-235           	506.1234    	0.4         	1               	;
 J-236           	500.3952    	2.62        	1               	;
 J-237           	510.8809    	1.47        	1               	;
 J-238           	477.675     	1.82        	1               	;
 J-239           	501.4544    	0.54        	1               	;
 J-24            	481.6824    	3.07        	1               	;
 J-240           	491.8328    	4.56        	1               	;
 J-241           	481         	0.73        	1               	;
 J-242           	481.225     	0.42        	1               	;
 J-243           	481         	0.93        	1               	;
 J-244           	482.9984    	2.2         	1               	;
 J-245           	482.9207    	4.15        	1               	;
 J-246           	495.1471    	2.3         	1               	;
 J-247           	524.8229    	2.57        	1               	;
 J-248           	520.8935    	3.29        	1               	;
 J-249           	509.3695    	1.01        	1               	;
 J-25            	568.0386    	3.46        	1               	;
 J-250           	481.6129    	1.08        	1               	;
 J-251           	483.9978    	1.12        	1               	;
 J-252           	493         	3.46        	1               	;
 J-253           	491.4134    	4.89        	1               	;
 J-254           	449.0851    	2.48        	1               	;
 J-255           	492.5444    	0           	1               	;
 J-256           	489.3675    	0           	1               	;
 J-257           	492.1461    	1.69        	1               	;
 J-258           	574.8646    	0.61        	1               	;
 J-259           	579.3059    	1.02        	1               	;
 J-26            	560.9025    	1.88        	1               	;
 J-260           	513.7104    	3.34        	1               	;
 J-261           	496.2522    	3.29        	1               	;
 J-262           	485.4243    	1.67        	1               	;
 J-263           	477.4413    	2.28        	1               	;
 J-264           	474.2711    	1.8         	1               	;
 J-265           	496.0786    	3.7         	1               	;
 J-266           	485.8466    	1.98        	1               	;
 J-267           	485.8361    	1.42        	1               	;
 J-268           	498.4509    	2.99        	1               	;
 J-269           	497.4185    	1.53        	1               	;
 J-27            	494.9632    	3.13        	1               	;
 J-270           	497.7462    	6.26        	1               	;
 J-271           	507.7723    	4.49        	1               	;
 J-272           	499.3048    	3.64        	1               	;
 J-273           	495.6205    	1.16        	1               	;
 J-274           	488.7503    	1.26        	1               	;
 J-275           	504.1435    	2.22        	1               	;
 J-276           	507.6058    	0.86        	1               	;
 J-277           	518.8781    	2.75        	1               	;
 J-278           	524.0801    	4.03        	1               	;
 J-279           	512.6635    	0.43        	1               	;
 J-28            	458.5122    	3.05        	1               	;
 J-281           	521.4147    	1.87        	1               	;
 J-282           	519.5876    	3.22        	1               	;
 J-283           	499.8236    	0.68        	1               	;
 J-284           	496.0324    	1.33        	1               	;
 J-285           	494.5862    	1.64        	1               	;
 J-286           	493.2452    	1.15        	1               	;
 J-287           	485.4213    	2.96        	1               	;
 J-288           	488.0925    	1.41        	1               	;
 J-289           	478         	1.13        	1               	;
 J-29            	506.9205    	2.97        	1               	;
 J-290           	508.765     	0.78        	1               	;
 J-291           	513.9404    	1.31        	1               	;
 J-292           	519.4761    	2.39        	1               	;
 J-293           	521.6347    	0.39        	1               	;
 J-294           	480.276     	1.55        	1               	;
 J-295           	461.5843    	7.9         	1               	;
 J-296           	491.015     	2.81        	1               	;
 J-297           	501.4336    	1.62        	1               	;
 J-298           	558.7437    	0.41        	1               	;
 J-299           	498.1978    	1.75        	1               	;
 J-3             	464.8073    	6.68        	1               	;
 J-30            	609.4363    	0.19        	1               	;
 J-300           	511.3123    	1.59        	1               	;
 J-301           	474.8772    	0           	1               	;
 J-304           	471.7538    	2.9         	1               	;
 J-305           	466.7338    	3.07        	1               	;
 J-306           	548.8678    	2.06        	1               	;
 J-307           	554.0214    	0.54        	1               	;
 J-308           	502.2219    	0           	1               	;
 J-309           	488.7215    	1.49        	1               	;
 J-31            	444.0782    	3.9         	1               	;
 J-310           	490.7023    	3.89        	1               	;
 J-311           	529.0698    	3.59        	1               	;
 J-312           	487.6328    	0.88        	1               	;
 J-313           	503.101     	2.76        	1               	;
 J-314           	503.8253    	2.32        	1               	;
 J-315           	508.989     	1.93        	1               	;
 J-316           	472.0821    	1.62        	1               	;
 J-317           	467.0691    	2.73        	1               	;
 J-318           	472.9484    	1.97        	1               	;
 J-319           	515.3685    	2.51        	1               	;
 J-32            	498.9131    	8.78        	1               	;
 J-320           	522.8976    	3.26        	1               	;
 J-321           	462.4562    	0.62        	1               	;
 J-322           	480.5464    	2.13        	1               	;
 J-323           	518.7606    	11.35       	1               	;
 J-324           	490.0733    	0.75        	1               	;
 J-325           	492.6802    	0.83        	1               	;
 J-326           	490         	0.83        	1               	;
 J-327           	486.5356    	1.8         	1               	;
 J-328           	495.8007    	1.38        	1               	;
 J-329           	438.3787    	1.14        	1               	;
 J-33            	475.1818    	2.69        	1               	;
 J-330           	507.1313    	2.73        	1               	;
 J-331           	501.497     	3.72        	1               	;
 J-332           	508.4567    	1.51        	1               	;
 J-333           	483.9486    	1.95        	1               	;
 J-334           	526.2042    	1.48        	1               	;
 J-335           	532.6345    	1.41        	1               	;
 J-336           	466.3337    	1.84        	1               	;
 J-337           	498.3394    	0.62        	1               	;
 J-338           	551.8472    	1.39        	1               	;
 J-339           	574.1849    	1.08        	1               	;
 J-34            	518.5588    	1.16        	1               	;
 J-340           	528.9781    	4.87        	1               	;
 J-341           	481.6297    	0.72        	1               	;
 J-342           	534.0692    	2.47        	1               	;
 J-343           	489.8181    	2.15        	1               	;
 J-344           	488.2337    	1           	1               	;
 J-345           	470.0639    	2.25        	1               	;
 J-346           	469.9374    	3.54        	1               	;
 J-347           	475.3846    	2.84        	1               	;
 J-348           	547.2335    	1.17        	1               	;
 J-349           	508.129     	3.38        	1               	;
 J-35            	509.302     	2.38        	1               	;
 J-350           	509.3872    	0.89        	1               	;
 J-351           	471.0427    	2.34        	1               	;
 J-352           	495.0651    	1.85        	1               	;
 J-353           	478.2367    	0.88        	1               	;
 J-355           	530.8107    	1.96        	1               	;
 J-356           	482.4141    	1.52        	1               	;
 J-357           	480.9397    	0           	1               	;
 J-358           	480.9402    	3.25        	1               	;
 J-359           	502.0011    	2.07        	1               	;
 J-36            	448.4345    	4.55        	1               	;
 J-360           	500.7264    	1.8         	1               	;
 J-361           	506.4985    	1.59        	1               	;
 J-362           	502.0006    	1.31        	1               	;
 J-363           	499.1425    	2.33        	1               	;
 J-364           	503.2437    	0.67        	1               	;
 J-365           	513.3711    	0.43        	1               	;
 J-366           	463         	0.84        	1               	;
 J-367           	490.8905    	2.41        	1               	;
 J-368           	490.93      	0.77        	1               	;
 J-369           	493.9485    	2.3         	1               	;
 J-37            	547.561     	4.36        	1               	;
 J-370           	481.8642    	0.73        	1               	;
 J-371           	483.0338    	1.29        	1               	;
 J-372           	478.0858    	3.53        	1               	;
 J-373           	506.9422    	8.21        	1               	;
 J-374           	490.83      	1.78        	1               	;
 J-375           	507.9999    	2.12        	1               	;
 J-376           	515.4537    	0.94        	1               	;
 J-377           	487.1313    	0.69        	1               	;
 J-378           	480.3527    	3.62        	1               	;
 J-379           	490.1904    	1.45        	1               	;
 J-38            	607.4169    	6.48        	1               	;
 J-380           	538.087     	5.82        	1               	;
 J-381           	542.3325    	5.59        	1               	;
 J-382           	481.2118    	0.39        	1               	;
 J-383           	502.3597    	1.72        	1               	;
 J-384           	541.9366    	1.59        	1               	;
 J-385           	548.9761    	5.35        	1               	;
 J-386           	524.0029    	0.56        	1               	;
 J-389           	476.6302    	2.31        	1               	;
 J-39            	525.2971    	2.6         	1               	;
 J-390           	487.0836    	2.23        	1               	;
 J-391           	467.1523    	0.86        	1               	;
 J-392           	476.5407    	1.72        	1               	;
 J-393           	497.392     	5.17        	1               	;
 J-394           	488.0978    	2.18        	1               	;
 J-395           	497.7795    	2.01        	1               	;
 J-396           	490.5647    	2.01        	1               	;
 J-399           	483.3183    	0           	1               	;
 J-4             	458.7631    	0.91        	1               	;
 J-40            	589.3142    	2.45        	1               	;
 J-400           	481.3831    	0           	1               	;
 J-401           	518.4275    	0           	1               	;
 J-402           	518.58      	0           	1               	;
 J-403           	509.3106    	1.18        	1               	;
 J-404           	477.9795    	1.16        	1               	;
 J-405           	500.3975    	2.76        	1               	;
 J-407           	486.074     	0.96        	1               	;
 J-408           	479.3506    	1.43        	1               	;
 J-409           	472.4832    	1.52        	1               	;
 J-41            	473.098     	1.98        	1               	;
 J-410           	594.5468    	0.56        	1               	;
 J-411           	490.1539    	1.84        	1               	;
 J-412           	504.9463    	0.68        	1               	;
 J-413           	588.7702    	1.52        	1               	;
 J-414           	552.341     	0.89        	1               	;
 J-415           	473.5639    	0.67        	1               	;
 J-416           	486.827     	0.9         	1               	;
 J-417           	525.3533    	0.65        	1               	;
 J-418           	460.2465    	0.46        	1               	;
 J-42            	475.9804    	3.08        	1               	;
 J-421           	477.2951    	1.16        	1               	;
 J-422           	486.0984    	1.62        	1               	;
 J-423           	450.5235    	0.76        	1               	;
 J-424           	474.9283    	0.98        	1               	;
 J-425           	512.1717    	2.07        	1               	;
 J-426           	482.1189    	0.71        	1               	;
 J-427           	483.981     	0.82        	1               	;
 J-428           	479.8727    	0.49        	1               	;
 J-429           	515.4822    	1.21        	1               	;
 J-43            	596.8589    	3.49        	1               	;
 J-430           	529.1633    	0           	1               	;
 J-431           	484.9331    	2.79        	1               	;
 J-432           	544.171     	0.96        	1               	;
 J-433           	470.4881    	1.07        	1               	;
 J-434           	481.0371    	4.94        	1               	;
 J-435           	483.9914    	1.09        	1               	;
 J-436           	508.8152    	0.46        	1               	;
 J-437           	499.4956    	2.92        	1               	;
 J-438           	486.9981    	1.35        	1               	;
 J-439           	486.8324    	1.49        	1               	;
 J-44            	512.27      	2.44        	1               	;
 J-440           	540.5227    	0.45        	1               	;
 J-441           	524.4695    	1.47        	1               	;
 J-442           	567.1469    	1.04        	1               	;
 J-443           	558.5177    	3.71        	1               	;
 J-444           	596.4774    	3.59        	1               	;
 J-445           	479.2007    	2.16        	1               	;
 J-446           	480.1219    	2.81        	1               	;
 J-447           	496.9023    	0.61        	1               	;
 J-448           	491.8542    	3.1         	1               	;
 J-449           	547.8398    	0.49        	1               	;
 J-45            	534.9763    	1.73        	1               	;
 J-450           	474.2244    	1.88        	1               	;
 J-451           	481.451     	0.88        	1               	;
 J-452           	548.8386    	2.3         	1               	;
 J-453           	462.8346    	1.43        	1               	;
 J-454           	524.0289    	2.93        	1               	;
 J-455           	579.3934    	3.8         	1               	;
 J-456           	570.6416    	2.44        	1               	;
 J-457           	490.7882    	0           	1               	;
 J-458           	494.9143    	4.31        	1               	;
 J-459           	549.727     	0.39        	1               	;
 J-46            	520.6902    	2.55        	1               	;
 J-460           	496.4661    	1.02        	1               	;
 J-461           	478.0045    	0.61        	1               	;
 J-462           	518.8717    	0.93        	1               	;
 J-463           	511.8604    	1.63        	1               	;
 J-464           	500.9794    	3.39        	1               	;
 J-465           	489.8635    	2.52        	1               	;
 J-466           	481.8074    	2.81        	1               	;
 J-467           	497.4941    	1.59        	1               	;
 J-468           	479.8872    	1.34        	1               	;
 J-469           	475.0601    	3.41        	1               	;
 J-47            	487.5859    	0           	1               	;
 J-470           	502.7264    	1.8         	1               	;
 J-471           	497.0363    	1.82        	1               	;
 J-472           	564.6595    	2.12        	1               	;
 J-473           	480.9905    	0.6         	1               	;
 J-474           	463.0974    	0.96        	1               	;
 J-475           	478.1137    	1.49        	1               	;
 J-476           	546.3054    	0.68        	1               	;
 J-477           	471.8116    	2.78        	1               	;
 J-48            	484.6961    	1.02        	1               	;
 J-480           	546.97      	1.77        	1               	;
 J-481           	546.7557    	0.44        	1               	;
 J-482           	546.3155    	1.34        	1               	;
 J-483           	476.8362    	0.73        	1               	;
 J-484           	481.6585    	0.86        	1               	;
 J-485           	422.2466    	2.03        	1               	;
 J-486           	505.9986    	1.83        	1               	;
 J-487           	468.2568    	2.78        	1               	;
 J-489           	488.0002    	1.8         	1               	;
 J-49            	555.9262    	2.74        	1               	;
 J-490           	544.4709    	1.09        	1               	;
 J-491           	527.7111    	0.62        	1               	;
 J-492           	440.9033    	1.54        	1               	;
 J-493           	499.1115    	2.04        	1               	;
 J-494           	511.8824    	1.34        	1               	;
 J-495           	488.6389    	2.11        	1               	;
 J-496           	486.0899    	1.04        	1               	;
 J-497           	500.6081    	2.29        	1               	;
 J-498           	536.9547    	1.18        	1               	;
 J-499           	532.8607    	1.7         	1               	;
 J-5             	462.6719    	1.78        	1               	;
 J-50            	497.7022    	2.18        	1               	;
 J-500           	569.5358    	1.3         	1               	;
 J-501           	518.7972    	0.78        	1               	;
 J-502           	502.8119    	1.17        	1               	;
 J-503           	526.1456    	0.33        	1               	;
 J-504           	526.7564    	2.15        	1               	;
 J-507           	574.7755    	2.92        	1               	;
 J-51            	511.7838    	2.87        	1               	;
 J-52            	518.7493    	3.08        	1               	;
 J-53            	514.88      	0.52        	1               	;
 J-54            	499.978     	2.92        	1               	;
 J-55            	517.971     	4.14        	1               	;
 J-56            	501.0215    	0.88        	1               	;
 J-57            	609.3941    	1.53        	1               	;
 J-58            	563.9152    	1.59        	1               	;
 J-59            	482.9267    	0           	1               	;
 J-6             	505.4406    	0.6         	1               	;
 J-60            	488.8423    	3.34        	1               	;
 J-61            	494.0808    	0.67        	1               	;
 J-62            	548.4188    	3.92        	1               	;
 J-63            	532.6959    	3.05        	1               	;
 J-64            	582.2819    	1.32        	1               	;
 J-65            	593.1793    	1.21        	1               	;
 J-66            	541.706     	2.01        	1               	;
 J-67            	592.4525    	1.65        	1               	;
 J-68            	560.7532    	4.74        	1               	;
 J-69            	532.494     	3.13        	1               	;
 J-70            	578.8301    	3.62        	1               	;
 J-71            	560.0139    	2.61        	1               	;
 J-72            	594.7625    	2.1         	1               	;
 J-73            	538.481     	2.21        	1               	;
 J-74            	490.0489    	2.81        	1               	;
 J-75            	489.0844    	3.42        	1               	;
 J-76            	474.6046    	2.36        	1               	;
 J-77            	471.3981    	3.77        	1               	;
 J-78            	582.8333    	1.03        	1               	;
 J-79            	495.1102    	1.25        	1               	;
 J-8             	593.702     	0.21        	1               	;
 J-80            	491.5203    	2.81        	1               	;
 J-81            	518.2358    	1.43        	1               	;
 J-82            	520.1119    	1.54        	1               	;
 J-83            	545.0627    	1.39        	1               	;
 J-84            	489.7787    	2.54        	1               	;
 J-85            	513.5375    	0.76        	1               	;
 J-86            	565.179     	1.89        	1               	;
 J-87            	519.58      	2.94        	1               	;
 J-88            	499.2278    	0.38        	1               	;