; Filename: Networks/No controls/headpump ky3_nocontrols.inp
; WNTR: 0.4.2
; Created: 2023-10-25 02:34:28
[TITLE]

[JUNCTIONS]
;ID                      Elevation       Demand Pattern                 
 J-106                       423.2284    14.062950851 1                          ;
 J-136                       479.0026     87.61623023 1                          ;
 J-137                       423.2284    33.344803118 1                          ;
 J-140                       446.1942    15.565524914 1                          ;
 J-146                         429.79    14.541538901 1                          ;
 J-159                       452.7559    8.7136544106 1                          ;
 J-163                       419.9475    30.411175346 1                          ;
 J-166                       433.0709     12.75855067 1                          ;
 J-167                       439.6325     40.26524071 1                          ;
 J-170                        410.105    75.747044345 1                          ;
 J-171                       442.9134    21.678257268 1                          ;
 J-174                       439.6325    24.786152222 1                          ;
 J-178                       442.9134    31.911607639 1                          ;
 J-184                       419.9475    19.877337754 1                          ;
 J-185                         429.79    8.9477714206 1                          ;
 J-189                       426.5092    20.471187702 1                          ;
 J-200                       452.7559    68.928148649 1                          ;
 J-206                       419.9475    10.239908591 1                          ;
 J-207                       433.0709    13.061487375 1                          ;
 J-216                       419.9475    18.515351424 1                          ;
 J-225                       465.8793    5.8738558339 1                          ;
 J-229                       465.8793    9.9252765021 1                          ;
 J-244                       472.4409    30.233638781 1                          ;
 J-245                         429.79    7.0985704736 1                          ;
 J-250                       439.6325    17.472856314 1                          ;
 J-252                         429.79    12.108862163 1                          ;
 J-258                       442.9134    8.0820091209 1                          ;
 J-259                       452.7559    40.192586168 1                          ;
 J-267                       436.3517    18.562420801 1                          ;
 J-35                        416.6667    14.740437388 1                          ;
 J-45                          429.79    65.396561361 1                          ;
 J-47                        439.6325    114.40048557 1                          ;
 J-48                        462.5984    55.347053344 1                          ;
 J-76                        439.6325     60.03015234 1                          ;
 J-78                        465.8793    96.186758086 1                          ;
 J-97                          429.79    143.43596827 1                          ;
 I-Pump-1                     410.105               0 1                          ;
 I-Pump-2                    344.4882               0 1                          ;
 O-Pump-3                    472.4409    7.5576193755 1                          ;
 I-Pump-4                    473.2843               0 1                          ;
 I-Pump-5                    472.4409               0 1                          ;
 O-Pump-1                     410.105    31.002150949 1                          ;
 O-Pump-2                    344.4882    51.839159861 1                          ;
 I-Pump-3                    472.4409               0 1                          ;
 O-Pump-4                    473.2843    11.492789098 1                          ;
 O-Pump-5                    472.4409     21.22686467 1                          ;

[RESERVOIRS]
;ID                                   Head                  Pattern
 R-1                              535                            ;
 R-2                              341                            ;
 R-3                              400                            ;

[TANKS]
;ID                              Elevation           Init Level            Min Level            Max Level             Diameter           Min Volume Volume Curve         Overflow            
 T-1                         459.3176        150.6824        140.6824        160.6824              65               0                                             ;
 T-2                         452.7559        152.2441        147.2441        172.2441              58               0                                             ;
 T-3                         465.8793        104.1207        94.12073        129.1207              44               0                                             ;

[PIPES]
;ID                   Node1                Node2                              Length             Diameter            Roughness           Minor Loss               Status
 P-151                R-1                  I-Pump-5                      113.44               8             150               0                 Open   ;
 P-166                J-184                J-185                       1521.589     10.26753891             100               0                 Open   ;
 P-187                J-206                J-207                         796.32    7.0625415175             100               0                 Open   ;
 P-208                J-170                J-216                        814.729               6             150               0                 Open   ;
 P-216                J-159                J-136                        947.669               6             150               0                 Open   ;
 P-217                J-146                J-185                        310.489    9.5985088612             100               0                 Open   ;
 P-22                 T-1                  J-45                         1523.15              12             100            14.5                 Open   ;
 P-231                T-3                  J-225                        107.949               8             150               0                 Open   ;
 P-256                J-207                J-159                         443.19               6             150               0                 Open   ;
 P-272                J-244                J-229                         789.45               6             150               0                 Open   ;
 P-290                R-1                  I-Pump-3                       74.15              12             150               0                 Open   ;
 P-295                J-259                J-200                          57.75               6             150               0                 Open   ;
 P-303                J-250                J-267                         435.13     7.075062866             100               0                 Open   ;
 P-318                J-252                J-245                          46.06     4.678523169             100               0                 Open   ;
 P-341                R-2                  I-Pump-2                       52.88              18             150               0                 Open   ;
 P-342                R-3                  I-Pump-1                        53.4              10             100               0                 Open   ;
 P-346                I-Pump-4             R-1                            82.05              18             150               0                 Open   ;
 P-359                J-76                 R-1                         3020.939              18             150               0                 Open   ;
 P-360                J-174                J-76                        1086.609               6             150               0                 Open   ;
 P-363                J-78                 J-225                        192.309               8             150               0                 Open   ;
 P-86                 T-2                  J-47                        3006.219              18             150               0                 Open   ;
 new-pipe-9           J-170                J-137                   818.30028689    16.560194454             100               0                 Open   ;
 new-pipe-26          J-136                J-78                    818.30028689    7.2224579904             100               0                 Open   ;
 new-pipe-42          O-Pump-2             J-76                    818.30028689    9.2686582683             100               0                 Open   ;
 new-pipe-69          J-106                J-252                   818.30028689    4.5123186439             100               0                 Open   ;
 new-pipe-70          J-106                J-245                   818.30028689    13.725444259             100               0                 Open   ;
 new-pipe-71          J-48                 J-244                   818.30028689    4.6803951129             100               0                 Open   ;
 new-pipe-72          J-48                 O-Pump-5                818.30028689    4.0754289356             100               0                 Open   ;
 new-pipe-73          J-244                O-Pump-5                818.30028689    4.7142469991             100               0                 Open   ;
 new-pipe-74          J-106                J-163                   818.30028689    13.883076299             100               0                 Open   ;
 new-pipe-89          J-78                 J-259                   818.30028689    4.6954683203             100               0                 Open   ;
 new-pipe-97          J-137                J-216                   818.30028689    4.4640793194             100               0                 Open   ;
 new-pipe-104         J-137                J-166                   818.30028689    11.409010459             100               0                 Open   ;
 new-pipe-105         J-137                J-167                   818.30028689    6.3174085951             100               0                 Open   ;
 new-pipe-106         J-166                J-167                   818.30028689    15.874573458             100               0                 Open   ;
 new-pipe-107         J-136                J-178                   818.30028689    6.8125327665             100               0                 Open   ;
 new-pipe-108         J-136                J-48                    818.30028689    5.6712274816             100               0                 Open   ;
 new-pipe-109         J-178                J-48                    818.30028689    7.9460455589             100               0                 Open   ;
 new-pipe-112         J-174                J-146                   818.30028689    11.345671768             100               0                 Open   ;
 new-pipe-113         J-140                J-159                   818.30028689    6.1957167316             100               0                 Open   ;
 new-pipe-124         J-163                J-171                   818.30028689     7.538131515             100               0                 Open   ;
 new-pipe-126         J-167                J-200                   818.30028689    4.9300174669             100               0                 Open   ;
 new-pipe-130         J-140                J-167                   818.30028689    10.064130288             100               0                 Open   ;
 new-pipe-131         J-140                J-200                   818.30028689    0.5604047991             100               0                 Open   ;
 new-pipe-132         J-106                J-206                   818.30028689    2.8540575937             100               0                 Open   ;
 new-pipe-133         J-106                J-216                   818.30028689    3.6043970654             100               0                 Open   ;
 new-pipe-134         J-206                J-216                   818.30028689    6.5648348714             100               0                 Open   ;
 new-pipe-135         J-178                J-159                   818.30028689    7.7060493914             100               0                 Open   ;
 new-pipe-136         J-178                J-229                   818.30028689    6.5117810505             100               0                 Open   ;
 new-pipe-137         J-159                J-229                   818.30028689    1.8849020244             100               0                 Open   ;
 new-pipe-140         J-259                J-140                   818.30028689    5.5609098433             100               0                 Open   ;
 new-pipe-143         J-189                J-35                    818.30028689    13.562120453             100               0                 Open   ;
 new-pipe-146         J-170                J-76                    818.30028689    4.2268301308             100               0                 Open   ;
 new-pipe-151         J-206                J-245                   818.30028689     6.898997128             100               0                 Open   ;
 new-pipe-157         J-229                J-258                   818.30028689    4.2587870299             100               0                 Open   ;
 new-pipe-166         J-267                J-244                   818.30028689     4.079383208             100               0                 Open   ;
 new-pipe-167         J-252                J-258                   818.30028689    5.1430133559             100               0                 Open   ;
 new-pipe-173         J-250                J-171                   818.30028689    6.6060086956             100               0                 Open   ;
 new-pipe-174         J-250                J-252                   818.30028689    3.6858818389             100               0                 Open   ;
 new-pipe-175         J-267                J-252                   818.30028689    5.7523325222             100               0                 Open   ;
 new-pipe-200         J-47                 O-Pump-4                818.30028689    9.6022876699             100               0                 Open   ;
 new-pipe-204         J-140                J-178                   818.30028689    9.8089000007             100               0                 Open   ;
 new-pipe-211         J-47                 J-97                    818.30028689    6.3989301132             100               0                 Open   ;
 new-pipe-212         O-Pump-4             J-97                    818.30028689    1.0789931383             100               0                 Open   ;
 new-pipe-215         J-35                 J-184                   818.30028689      12.4956205             100               0                 Open   ;
 new-pipe-218         O-Pump-3             J-184                   818.30028689    10.318795914             100               0                 Open   ;
 new-pipe-220         J-189                J-184                   818.30028689    9.0176839629             100               0                 Open   ;
 new-pipe-221         J-166                J-207                   818.30028689    4.7369659894             100               0                 Open   ;
 new-pipe-222         J-166                J-216                   818.30028689    5.3874907114             100               0                 Open   ;
 new-pipe-223         J-207                J-137                   818.30028689   0.67673968704             100               0                 Open   ;
 new-pipe-224         J-207                J-216                   818.30028689    5.7428200564             100               0                 Open   ;
 new-pipe-225         J-185                J-189                   818.30028689    12.032129759             100               0                 Open   ;
 new-pipe-226         J-185                J-174                   818.30028689    6.2901424494             100               0                 Open   ;
 new-pipe-227         J-189                J-174                   818.30028689    6.8841389204             100               0                 Open   ;
 new-pipe-228         J-189                J-146                   818.30028689    4.9820133691             100               0                 Open   ;
 new-pipe-229         J-163                J-170                   818.30028689    9.1381306284             100               0                 Open   ;
 new-pipe-230         J-163                J-76                    818.30028689    1.9286975431             100               0                 Open   ;
 new-pipe-231         J-170                J-171                   818.30028689    1.1646681134             100               0                 Open   ;
 new-pipe-232         J-171                J-76                    818.30028689   0.20349456068             100               0                 Open   ;
 new-pipe-233         J-146                J-184                   818.30028689     8.053695468             100               0                 Open   ;
 new-pipe-234         J-146                O-Pump-3                818.30028689    6.2872864532             100               0                 Open   ;
 new-pipe-235         J-166                J-140                   818.30028689    1.3764834086             100               0                 Open   ;
 new-pipe-236         J-166                J-159                   818.30028689    2.0124764729             100               0                 Open   ;
 new-pipe-237         J-167                J-159                   818.30028689     6.249058749             100               0                 Open   ;
 new-pipe-238         J-78                 J-200                   818.30028689     4.859930603             100               0                 Open   ;
 new-pipe-239         J-78                 J-48                    818.30028689    3.4904323714             100               0                 Open   ;
 new-pipe-240         J-200                J-48                    818.30028689    1.9332431557             100               0                 Open   ;
 new-pipe-241         J-200                J-136                   818.30028689    3.5550200625             100               0                 Open   ;
 new-pipe-242         J-185                J-35                    818.30028689     6.165049249             100               0                 Open   ;
 new-pipe-243         J-174                O-Pump-3                818.30028689    2.4538038363             100               0                 Open   ;
 new-pipe-244         J-174                J-184                   818.30028689    3.2693581634             100               0                 Open   ;
 new-pipe-245         J-225                J-259                   818.30028689    4.1079507003             100               0                 Open   ;
 new-pipe-246         J-225                J-140                   818.30028689    8.6350037314             100               0                 Open   ;
 new-pipe-247         J-225                J-178                   818.30028689    7.1971640099             100               0                 Open   ;
 new-pipe-248         J-259                J-178                   818.30028689    4.3478626918             100               0                 Open   ;
 new-pipe-249         J-207                J-258                   818.30028689    5.4485092741             100               0                 Open   ;
 new-pipe-250         J-207                J-245                   818.30028689    12.350767391             100               0                 Open   ;
 new-pipe-251         J-258                J-206                   818.30028689    1.0696123451             100               0                 Open   ;
 new-pipe-252         J-258                J-245                   818.30028689    7.1753533542             100               0                 Open   ;
 new-pipe-253         J-171                J-106                   818.30028689    3.8441399164             100               0                 Open   ;
 new-pipe-254         J-250                J-106                   818.30028689    6.1254520033             100               0                 Open   ;
 new-pipe-255         J-250                J-163                   818.30028689    2.1852844504             100               0                 Open   ;
 new-pipe-256         J-244                J-250                   818.30028689    2.8350531771             100               0                 Open   ;
 new-pipe-257         J-244                J-171                   818.30028689    7.1710144793             100               0                 Open   ;
 new-pipe-258         J-267                J-171                   818.30028689    3.0372037349             100               0                 Open   ;
 new-pipe-259         J-267                J-229                   818.30028689    6.1139320408             100               0                 Open   ;
 new-pipe-260         J-267                J-258                   818.30028689    5.7545475426             100               0                 Open   ;
 new-pipe-261         J-229                J-252                   818.30028689    2.4780147764             100               0                 Open   ;
 new-pipe-263         J-97                 J-45                    818.30028689     8.948409791             100               0                 Open   ;
 new-pipe-271         J-35                 J-97                    818.30028689    4.2015863786             100               0                 Open   ;
 new-pipe-273         J-45                 J-35                    818.30028689    3.3404017771             100               0                 Open   ;
 new-pipe-274         O-Pump-1             J-45                    818.30028689    6.9498596616             100               0                 Open   ;
 new-pipe-275         O-Pump-1             J-97                    818.30028689    5.9182170003             100               0                 Open   ;
 new-pipe-276         O-Pump-1             J-35                    818.30028689    2.2486249448             100               0                 Open   ;

[PUMPS]
;ID                   Node1                Node2                Properties          
 ~@Pump-1             I-Pump-1             O-Pump-1             HEAD     PC_~@Pump-1            ;
 ~@Pump-2             I-Pump-2             O-Pump-2             HEAD     PC_~@Pump-2            ;
 ~@Pump-3             I-Pump-3             O-Pump-3             HEAD     PC_~@Pump-3            ;
 ~@Pump-4             I-Pump-4             O-Pump-4             HEAD     PC_~@Pump-4            ;
 ~@Pump-5             I-Pump-5             O-Pump-5             HEAD     PC_~@Pump-5            ;

[VALVES]
;ID                   Node1                Node2                            Diameter Type              Setting           Minor Loss

[TAGS]
;type      name       tag       

[DEMANDS]
;ID        Demand     Pattern   

[STATUS]
;ID        Setting   

[PATTERNS]
;ID        Multipliers

1 0.330000 0.250000 0.209000 0.209000 0.259000 0.360000
1 0.529000 0.910000 1.200000 1.299000 1.340000 1.340000
1 1.320000 1.269000 1.250000 1.250000 1.279000 1.370000
1 1.519000 1.700000 1.750000 1.669000 0.899000 0.479000

2 1.000000

3 0.165000 0.125000 0.105000 0.105000 0.130000 0.180000
3 0.265000 0.455000 0.600000 0.650000 0.670000 0.670000
3 0.660000 0.635000 0.625000 0.625000 0.640000 0.685000
3 0.760000 0.850000 0.875000 0.835000 0.450000 0.240000

ENRG1 1.000000 1.000000 1.000000 1.000000 1.000000 1.000000
ENRG1 1.000000 1.000000 1.000000 1.000000 1.000000 1.000000
ENRG1 1.000000 1.000000 1.000000 1.000000 1.000000 1.000000
ENRG1 1.000000 1.000000 1.000000 1.000000 1.000000

[CURVES]
;ID         X-Value      Y-Value     
;PUMP: PC_~@Pump-1
 PC_~@Pump-1   371.296680   213.092368   ;

;PUMP: PC_~@Pump-2
 PC_~@Pump-2  2323.558773   255.391629   ;

;PUMP: PC_~@Pump-3
 PC_~@Pump-3   682.326157    58.051532   ;

;PUMP: PC_~@Pump-4
 PC_~@Pump-4   482.118141    82.166114   ;

;PUMP: PC_~@Pump-5
 PC_~@Pump-5   863.319197   115.675638   ;


[CONTROLS]

[RULES]

[ENERGY]
GLOBAL EFFICIENCY      75.0000
GLOBAL PRICE           0.0000
DEMAND CHARGE          0.0000
GLOBAL PATTERN         ENRG1

[EMITTERS]
;ID        Flow coefficient

[QUALITY]

[SOURCES]
;Node      Type       Quality    Pattern   

[REACTIONS]
;Type           Pipe/Tank               Coefficient

 ORDER BULK 1
 ORDER TANK 1
 ORDER WALL 1
 GLOBAL BULK -0.5000   
 GLOBAL WALL -1.0000   
 LIMITING POTENTIAL 0.0000    
 ROUGHNESS CORRELATION 0.0000    

[MIXING]
;Tank ID             Model Fraction

[TIMES]
DURATION             24:00:00
HYDRAULIC TIMESTEP   00:30:00
QUALITY TIMESTEP     00:05:00
PATTERN TIMESTEP     01:00:00
PATTERN START        00:00:00
REPORT TIMESTEP      00:30:00
REPORT START         00:00:00
START CLOCKTIME      00:00:00 AM
RULE TIMESTEP        00:06:00
STATISTIC            NONE      

[REPORT]
STATUS     FULL
SUMMARY    NO
PAGE       0

[OPTIONS]
UNITS                GPM                 
HEADLOSS             H-W                 
SPECIFIC GRAVITY     1
VISCOSITY            1
TRIALS               40
ACCURACY             0.0001
CHECKFREQ            2
MAXCHECK             10
UNBALANCED           STOP                
PATTERN              1                   
DEMAND MULTIPLIER    1
EMITTER EXPONENT     0.5
QUALITY              AGE                 
DIFFUSIVITY          1
TOLERANCE            0.01

[COORDINATES]
;Node      X-Coord    Y-Coord   
J-106         4296312.160000000    3780952.000000000
J-136         4293694.660000000    3779098.000000000
J-137         4295692.580000000    3782400.000000000
J-140         4293521.240000000    3780478.000000000
J-146         4303852.400000000    3779213.000000000
J-159         4294298.650000000    3779828.000000000
J-163         4296942.660000000    3781387.000000000
J-166         4294321.410000000    3781309.000000000
J-167         4294000.070000000    3781043.000000000
J-170         4295975.130000000    3782174.000000000
J-171         4297502.650000000    3779872.000000000
J-174         4303162.290000000    3779169.000000000
J-178         4294337.360000000    3779162.000000000
J-184         4305389.340000000    3779099.000000000
J-185         4303925.550000000    3779515.000000000
J-189         4303297.610000000    3779895.000000000
J-200         4292515.700000000    3781320.000000000
J-206         4295098.360000000    3780775.000000000
J-207         4294587.250000000    3780165.000000000
J-216         4295456.430000000    3781546.000000000
J-225         4292582.960000000    3780283.000000000
J-229         4295464.840000000    3778832.000000000
J-244         4295973.010000000    3778238.000000000
J-245         4295727.980000000    3780252.000000000
J-250         4296629.450000000    3780082.000000000
J-252         4295762.700000000    3780221.000000000
J-258         4295266.080000000    3779626.000000000
J-259         4292478.000000000    3781276.000000000
J-267         4296348.370000000    3779750.000000000
J-35          4305172.130000000    3779859.000000000
J-45          4310537.510000000    3780209.000000000
J-47          4306100.320000000    3771873.000000000
J-48          4294259.360000000    3777418.000000000
J-76          4302214.810000000    3779701.000000000
J-78          4292462.630000000    3780133.000000000
J-97          4309065.320000000    3778798.000000000
I-Pump-1      4309413.130000000    3782098.000000000
I-Pump-2      4295411.300000000    3821662.000000000
O-Pump-3      4303289.580000000    3778032.000000000
I-Pump-4      4303193.290000000    3777937.000000000
I-Pump-5      4303138.430000000    3777934.000000000
O-Pump-1      4309413.130000000    3782098.000000000
O-Pump-2      4295411.300000000    3821662.000000000
I-Pump-3      4303289.580000000    3778032.000000000
O-Pump-4      4303193.290000000    3777937.000000000
O-Pump-5      4303138.430000000    3777934.000000000
R-1           4303196.000000000    3777987.000000000
R-2           4296339.000000000    3824038.000000000
R-3           4309593.000000000    3782218.000000000
T-1           4311887.000000000    3780432.000000000
T-2           4308225.000000000    3772693.000000000
T-3           4292514.000000000    3780366.000000000

[VERTICES]
;Link      X-Coord    Y-Coord   
P-187         4294980.200000000    3780633.660000000
P-216         4294249.050000000    3779760.770000000
P-216         4293996.370000000    3779449.630000000
P-216         4293995.480000000    3779448.590000000
P-217         4303916.340000000    3779484.330000000
P-22          4311882.740000000    3780260.670000000
P-22          4311399.630000000    3780290.840000000
P-22          4310815.870000000    3780260.670000000
P-256         4294546.950000000    3780116.510000000
P-272         4295850.720000000    3778444.900000000
P-272         4295716.760000000    3778608.910000000
P-272         4295520.830000000    3778794.950000000
P-359         4302192.900000000    3779627.790000000
P-359         4301877.060000000    3778578.430000000
P-359         4301914.370000000    3778391.440000000
P-359         4302009.130000000    3778226.920000000
P-359         4302161.140000000    3778057.390000000
P-359         4302442.810000000    3777828.060000000
P-359         4302549.560000000    3777800.790000000
P-359         4302584.500000000    3777801.330000000
P-359         4302692.060000000    3777802.990000000
P-359         4302867.540000000    3777831.440000000
P-359         4303003.810000000    3777887.660000000