; Filename: Networks/No controls/headpump ky7 elev_nocontrols.inp
; WNTR: 0.4.2
; Created: 2023-10-31 11:21:12
[TITLE]

[JUNCTIONS]
;ID                      Elevation       Demand Pattern                 
 J-110                       482.9622    67.962597628 1                          ;
 J-112                       480.0848    5.3364993082 1                          ;
 J-113                       484.5578    4.6940031451 1                          ;
 J-165                       466.0002    46.457571679 1                          ;
 J-167                       501.1688    4.7098137347 1                          ;
 J-173                        502.808    70.220401131 1                          ;
 J-178                       508.4932    16.706714613 1                          ;
 J-179                            480     3.080988365 1                          ;
 J-184                       505.1692    25.706728212 1                          ;
 J-186                       498.4245    20.338335932 1                          ;
 J-192                       484.5555    3.6028163937 1                          ;
 J-217                       481.1604    6.4206718984 1                          ;
 J-219                       482.7389    9.8700819802 1                          ;
 J-228                       489.4911    4.1465229855 1                          ;
 J-241                            481    4.1258476117 1                          ;
 J-244                       482.9984    4.0512685284 1                          ;
 J-245                       482.9207      9.21295409 1                          ;
 J-251                       483.9978    3.3526430639 1                          ;
 J-252                            493    4.1460201454 1                          ;
 J-253                       491.4134    6.6292577421 1                          ;
 J-256                       489.3675    13.748626861 1                          ;
 J-264                       474.2711    7.6955811328 1                          ;
 J-267                       485.8361    3.2845540328 1                          ;
 J-271                       507.7723    63.902938882 1                          ;
 J-274                       488.7503    1.5385292302 1                          ;
 J-284                       496.0324    23.167268844 1                          ;
 J-287                       485.4213    3.0242822001 1                          ;
 J-289                            478    4.3176448307 1                          ;
 J-292                       519.4761    13.188262527 1                          ;
 J-296                        491.015    3.8512585133 1                          ;
 J-301                       474.8772    1.2692793965 1                          ;
 J-308                       502.2219    91.310956976 1                          ;
 J-310                       490.7023      4.84628001 1                          ;
 J-316                       472.0821    7.1960537957 1                          ;
 J-328                       495.8007    11.971930841 1                          ;
 J-33                        475.1818    15.739611408 1                          ;
 J-332                       508.4567    34.652970016 1                          ;
 J-344                       488.2337     1.867502157 1                          ;
 J-351                       471.0427    5.8661994601 1                          ;
 J-360                       500.7264    5.2641251263 1                          ;
 J-362                       502.0006    4.9856198735 1                          ;
 J-372                       478.0858    4.7513031662 1                          ;
 J-377                       487.1313     1.681687073 1                          ;
 J-389                       476.6302    41.463990116 1                          ;
 J-394                       488.0978    13.961763564 1                          ;
 J-40                        589.3142    3.7943082181 1                          ;
 J-408                       479.3506    4.2664374034 1                          ;
 J-416                        486.827    5.1981039948 1                          ;
 J-427                        483.981    1.9468548579 1                          ;
 J-437                       499.4956    3.5286088222 1                          ;
 J-451                        481.451    1.7459570449 1                          ;
 J-467                       497.4941    9.1563108309 1                          ;
 J-477                       471.8116    7.4577884469 1                          ;
 J-484                       481.6585     2.190975933 1                          ;
 J-499                       532.8607    7.6734803887 1                          ;
 J-57                        609.3941    238.99330689 1                          ;
 J-60                        488.8423    7.4232613309 1                          ;
 J-67                        592.4525    2.4368677489 1                          ;
 J-79                        495.1102     20.96388171 1                          ;
 J-8                          593.702    0.2527062165 1                          ;
 J-84                        489.7787    11.527679048 1                          ;
 J-9                         517.8172    18.972206619 1                          ;
 O-Pump-1                    379.7485     9.131306274 1                          ;
 I-Pump-1                    345.7485               0 1                          ;

[RESERVOIRS]
;ID                                   Head                  Pattern
 R-1                              352                            ;

[TANKS]
;ID                              Elevation           Init Level            Min Level            Max Level             Diameter           Min Volume Volume Curve         Overflow            
 T-1                              532             133             118             158              65               0                                             ;
 T-2                         566.1183        123.8817        109.8817        126.8817              78               0                                             ;
 T-3                         622.8533        97.14667        92.14667        117.1467              58               0                                             ;

[PIPES]
;ID                   Node1                Node2                              Length             Diameter            Roughness           Minor Loss               Status
 P-107                J-40                 T-2                          635.979              16             150               0                 Open   ;
 P-120                R-1                  I-Pump-1                      618.39              16             150               0                 Open   ;
 P-130                J-167                J-178                         262.26               8             150               0                 Open   ;
 P-139                J-192                J-179                         319.91              16             150               0                 Open   ;
 P-157                J-67                 T-2                           859.65              12             150               0                 Open   ;
 P-191                J-252                J-253                         270.97    2.3354708884             100               0                 Open   ;
 P-213                T-3                  J-8                           512.09              12             150               0                 Open   ;
 P-220                J-179                J-289                         243.08    18.740482098             100               0                 Open   ;
 P-266                J-310                J-252                        281.309               2             150               0                 Open   ;
 P-273                J-301                J-165                         749.14              10             150               0                 Open   ;
 P-294                J-113                J-184                            450               4             150               0                 Open   ;
 P-324                J-167                J-287                        410.799               6             150               0                 Open   ;
 P-330                J-112                J-372                         407.66               6             150               0                 Open   ;
 P-333                J-267                J-344                          97.16    8.4187730787             100               0                 Open   ;
 P-426                J-344                J-377                         353.89               8             150               0                 Open   ;
 P-485                J-253                J-287                         284.48               2             150               0                 Open   ;
 P-492                J-351                J-33                         326.529    9.3589845726             100               0                 Open   ;
 P-504                J-264                J-477                         265.91    7.4955856811             100               0                 Open   ;
 P-511                J-372                J-310                         394.04               2             150               0                 Open   ;
 P-524                J-451                J-484                          98.83               8             150               0                 Open   ;
 P-526                J-274                J-84                          466.95               6             150               0                 Open   ;
 P-551                J-256                J-301                        657.169              16             150               0                 Open   ;
 P-576                J-110                J-264                        676.979    9.9441199525             100               0                 Open   ;
 P-589                J-296                J-60                          515.53               4             150               0                 Open   ;
 P-596                J-437                J-394                         355.42               6             150               0                 Open   ;
 P-6                  T-1                  J-9                          1148.78              10             140               0                 Open   ;
 P-74                 J-112                J-113                        415.119               2             150               0                 Open   ;
 new-pipe-56          J-57                 J-8                     745.66255887    15.680347064             100               0                 Open   ;
 new-pipe-90          J-316                J-451                   745.66255887    9.7467559644             100               0                 Open   ;
 new-pipe-94          J-192                J-244                   745.66255887    5.2293198605             100               0                 Open   ;
 new-pipe-96          J-217                J-252                   745.66255887    4.6193599992             100               0                 Open   ;
 new-pipe-109         J-467                J-360                   745.66255887    4.8967501848             100               0                 Open   ;
 new-pipe-121         J-57                 J-67                    745.66255887    10.530053454             100               0                 Open   ;
 new-pipe-125         J-79                 J-84                    745.66255887    9.5791927633             100               0                 Open   ;
 new-pipe-138         J-499                J-40                    745.66255887    7.8248955935             100               0                 Open   ;
 new-pipe-149         J-167                J-292                   745.66255887    4.4002029464             100               0                 Open   ;
 new-pipe-151         J-79                 J-328                   745.66255887    7.6586522927             100               0                 Open   ;
 new-pipe-156         J-179                J-296                   745.66255887    3.4838400802             100               0                 Open   ;
 new-pipe-161         J-186                J-362                   745.66255887    8.3151276552             100               0                 Open   ;
 new-pipe-162         J-186                J-437                   745.66255887    2.1584246398             100               0                 Open   ;
 new-pipe-163         J-362                J-437                   745.66255887    3.5302057731             100               0                 Open   ;
 new-pipe-165         J-84                 J-173                   745.66255887    6.8610241986             100               0                 Open   ;
 new-pipe-169         J-165                J-241                   745.66255887    6.0023619047             100               0                 Open   ;
 new-pipe-170         J-165                J-484                   745.66255887     4.095703993             100               0                 Open   ;
 new-pipe-171         J-241                J-484                   745.66255887    3.9484663983             100               0                 Open   ;
 new-pipe-173         J-228                J-344                   745.66255887    5.9346326848             100               0                 Open   ;
 new-pipe-174         J-228                J-192                   745.66255887    8.0585704344             100               0                 Open   ;
 new-pipe-175         J-344                J-192                   745.66255887     3.331732562             100               0                 Open   ;
 new-pipe-177         J-60                 J-499                   745.66255887    3.0457085616             100               0                 Open   ;
 new-pipe-183         J-271                J-394                   745.66255887    5.9624081011             100               0                 Open   ;
 new-pipe-184         J-271                J-9                     745.66255887    6.0747845831             100               0                 Open   ;
 new-pipe-185         J-394                J-9                     745.66255887    6.3361931518             100               0                 Open   ;
 new-pipe-188         J-245                J-284                   745.66255887    4.4055157259             100               0                 Open   ;
 new-pipe-189         J-245                J-113                   745.66255887    4.3211510621             100               0                 Open   ;
 new-pipe-190         J-284                J-113                   745.66255887    5.0716419554             100               0                 Open   ;
 new-pipe-195         J-332                J-184                   745.66255887    7.0859082788             100               0                 Open   ;
 new-pipe-196         J-251                J-244                   745.66255887     11.04928724             100               0                 Open   ;
 new-pipe-197         J-251                J-241                   745.66255887    4.2905120137             100               0                 Open   ;
 new-pipe-198         J-244                J-241                   745.66255887    9.5339698899             100               0                 Open   ;
 new-pipe-200         J-256                J-308                   745.66255887    20.250991152             100               0                 Open   ;
 new-pipe-206         J-274                J-328                   745.66255887    6.2068002497             100               0                 Open   ;
 new-pipe-207         J-274                J-79                    745.66255887    6.5136306057             100               0                 Open   ;
 new-pipe-212         J-287                J-178                   745.66255887    2.5227708094             100               0                 Open   ;
 new-pipe-213         J-287                J-219                   745.66255887    5.8031770484             100               0                 Open   ;
 new-pipe-214         J-178                J-219                   745.66255887    18.387453618             100               0                 Open   ;
 new-pipe-217         J-165                J-110                   745.66255887    7.3285151477             100               0                 Open   ;
 new-pipe-218         J-228                J-274                   745.66255887    2.2357886861             100               0                 Open   ;
 new-pipe-219         J-228                J-377                   745.66255887     5.676516865             100               0                 Open   ;
 new-pipe-220         J-274                J-377                   745.66255887    8.5263664983             100               0                 Open   ;
 new-pipe-225         J-328                J-394                   745.66255887    5.3952163935             100               0                 Open   ;
 new-pipe-226         J-328                J-271                   745.66255887    2.6407475886             100               0                 Open   ;
 new-pipe-229         J-284                J-184                   745.66255887     4.723025568             100               0                 Open   ;
 new-pipe-230         J-310                J-112                   745.66255887    4.4577758053             100               0                 Open   ;
 new-pipe-231         J-310                J-416                   745.66255887    3.1748394084             100               0                 Open   ;
 new-pipe-232         J-112                J-416                   745.66255887    5.0220389811             100               0                 Open   ;
 new-pipe-235         J-184                J-112                   745.66255887    4.8812205894             100               0                 Open   ;
 new-pipe-236         J-112                J-332                   745.66255887    5.7299029801             100               0                 Open   ;
 new-pipe-239         J-351                J-408                   745.66255887    4.7835385702             100               0                 Open   ;
 new-pipe-245         J-467                J-256                   745.66255887    7.9030662251             100               0                 Open   ;
 new-pipe-253         J-451                J-408                   745.66255887    9.1507929578             100               0                 Open   ;
 new-pipe-258         J-40                 J-292                   745.66255887    10.407958818             100               0                 Open   ;
 new-pipe-259         J-40                 J-178                   745.66255887    12.549810658             100               0                 Open   ;
 new-pipe-260         J-292                J-178                   745.66255887    10.291737795             100               0                 Open   ;
 new-pipe-261         J-287                J-289                   745.66255887    2.6344402086             100               0                 Open   ;
 new-pipe-262         J-289                J-219                   745.66255887    8.4773060139             100               0                 Open   ;
 new-pipe-263         J-389                J-110                   745.66255887    7.5335349094             100               0                 Open   ;
 new-pipe-264         J-110                J-477                   745.66255887     5.440362534             100               0                 Open   ;
 new-pipe-265         J-389                J-477                   745.66255887    7.3146097636             100               0                 Open   ;
 new-pipe-266         J-394                J-267                   745.66255887    10.402071673             100               0                 Open   ;
 new-pipe-267         J-394                J-377                   745.66255887    6.2249197456             100               0                 Open   ;
 new-pipe-268         J-267                J-377                   745.66255887    8.1757574872             100               0                 Open   ;
 new-pipe-269         J-427                J-251                   745.66255887    9.5327234588             100               0                 Open   ;
 new-pipe-270         J-427                J-484                   745.66255887    8.1485528945             100               0                 Open   ;
 new-pipe-271         J-251                J-484                   745.66255887    8.8948554113             100               0                 Open   ;
 new-pipe-272         J-389                J-351                   745.66255887    2.7411631796             100               0                 Open   ;
 new-pipe-273         J-351                J-477                   745.66255887    6.8200674616             100               0                 Open   ;
 new-pipe-274         J-252                J-416                   745.66255887    5.2438891682             100               0                 Open   ;
 new-pipe-277         J-217                J-253                   745.66255887    1.9831207333             100               0                 Open   ;
 new-pipe-278         J-217                J-289                   745.66255887    5.0804767375             100               0                 Open   ;
 new-pipe-279         J-253                J-289                   745.66255887    1.5321934809             100               0                 Open   ;
 new-pipe-285         J-173                J-271                   745.66255887    5.7214147263             100               0                 Open   ;
 new-pipe-288         J-186                J-308                   745.66255887    5.5342929562             100               0                 Open   ;
 new-pipe-289         J-389                J-33                    745.66255887     2.431907278             100               0                 Open   ;
 new-pipe-291         J-389                J-284                   745.66255887    4.1427424912             100               0                 Open   ;
 new-pipe-292         J-33                 J-284                   745.66255887    7.7336469909             100               0                 Open   ;
 new-pipe-293         J-217                J-244                   745.66255887    2.0663844719             100               0                 Open   ;
 new-pipe-294         J-217                J-179                   745.66255887    4.0287541503             100               0                 Open   ;
 new-pipe-295         J-217                J-251                   745.66255887    9.3087196619             100               0                 Open   ;
 new-pipe-296         J-244                J-179                   745.66255887    3.3130798125             100               0                 Open   ;
 new-pipe-297         J-179                J-251                   745.66255887    8.7751337532             100               0                 Open   ;
 new-pipe-298         J-219                J-179                   745.66255887    3.7862774517             100               0                 Open   ;
 new-pipe-299         J-219                J-296                   745.66255887    5.0681698127             100               0                 Open   ;
 new-pipe-300         J-289                J-296                   745.66255887    3.8549996116             100               0                 Open   ;
 new-pipe-301         J-173                J-499                   745.66255887    6.5356096241             100               0                 Open   ;
 new-pipe-302         J-173                J-40                    745.66255887    1.0031461481             100               0                 Open   ;
 new-pipe-303         J-173                J-60                    745.66255887    4.2396120138             100               0                 Open   ;
 new-pipe-304         J-40                 J-60                    745.66255887   0.50221119946             100               0                 Open   ;
 new-pipe-305         J-245                J-33                    745.66255887    5.6445117521             100               0                 Open   ;
 new-pipe-306         J-245                J-389                   745.66255887    1.9282237316             100               0                 Open   ;
 new-pipe-307         J-264                J-316                   745.66255887    4.9087407934             100               0                 Open   ;
 new-pipe-309         J-110                J-316                   745.66255887    2.7513562624             100               0                 Open   ;
 new-pipe-310         J-173                J-79                    745.66255887    2.1424051121             100               0                 Open   ;
 new-pipe-311         J-173                J-328                   745.66255887    1.5125751327             100               0                 Open   ;
 new-pipe-312         J-79                 J-271                   745.66255887    3.0245237321             100               0                 Open   ;
 new-pipe-313         J-267                J-301                   745.66255887    7.5701951177             100               0                 Open   ;
 new-pipe-314         J-267                J-360                   745.66255887    9.2402735672             100               0                 Open   ;
 new-pipe-315         J-301                J-344                   745.66255887    6.8875133538             100               0                 Open   ;
 new-pipe-316         J-301                J-360                   745.66255887    4.1918600313             100               0                 Open   ;
 new-pipe-317         J-344                J-360                   745.66255887    7.1110696504             100               0                 Open   ;
 new-pipe-319         J-332                J-416                   745.66255887    3.9681177564             100               0                 Open   ;
 new-pipe-320         J-332                J-292                   745.66255887    8.5658640285             100               0                 Open   ;
 new-pipe-321         J-416                J-292                   745.66255887     3.383421932             100               0                 Open   ;
 new-pipe-323         J-165                O-Pump-1                745.66255887    1.5974699508             100               0                 Open   ;
 new-pipe-325         J-264                J-351                   745.66255887    8.2334229101             100               0                 Open   ;
 new-pipe-326         J-351                J-316                   745.66255887    4.4292924618             100               0                 Open   ;
 new-pipe-327         J-316                J-477                   745.66255887    2.9245911661             100               0                 Open   ;
 new-pipe-328         J-33                 J-408                   745.66255887    2.1996934389             100               0                 Open   ;
 new-pipe-329         J-245                J-351                   745.66255887    0.6369676544             100               0                 Open   ;
 new-pipe-330         J-245                J-408                   745.66255887    3.5268036002             100               0                 Open   ;
 new-pipe-331         J-245                J-372                   745.66255887    4.4128098399             100               0                 Open   ;
 new-pipe-332         J-113                J-372                   745.66255887    3.4337143023             100               0                 Open   ;
 new-pipe-333         J-113                J-408                   745.66255887    2.1464751368             100               0                 Open   ;
 new-pipe-334         J-372                J-408                   745.66255887    5.1075862927             100               0                 Open   ;
 new-pipe-335         J-360                J-437                   745.66255887     7.401562897             100               0                 Open   ;
 new-pipe-336         J-360                J-362                   745.66255887    7.5446821149             100               0                 Open   ;
 new-pipe-337         J-437                J-267                   745.66255887    3.4991409755             100               0                 Open   ;
 new-pipe-338         J-267                J-362                   745.66255887    2.4874972324             100               0                 Open   ;
 new-pipe-339         J-362                J-467                   745.66255887    2.7334634752             100               0                 Open   ;
 new-pipe-340         J-360                J-186                   745.66255887    8.5770651541             100               0                 Open   ;
 new-pipe-341         J-186                J-467                   745.66255887    4.7596545815             100               0                 Open   ;
 new-pipe-342         J-427                J-372                   745.66255887    4.2513115816             100               0                 Open   ;
 new-pipe-343         J-427                J-451                   745.66255887    6.4498544961             100               0                 Open   ;
 new-pipe-344         J-427                J-408                   745.66255887    7.3518579388             100               0                 Open   ;