[TITLE]


[JUNCTIONS]
;ID              	Elev        	Demand      	Pattern         
 J-1             	1243.741    	1.11        	                	;				
 J-10            	1148.152    	0.02        	                	;				
 J-100           	1182.056    	2.41        	                	;				
 J-101           	1186.325    	2.63        	                	;				
 J-102           	1235.43     	1.74        	                	;				
 J-103           	1238.49     	0.34        	                	;				
 J-104           	1240        	0.39        	                	;				
 J-105           	1240        	2.1         	                	;				
 J-106           	1165.509    	1.7         	                	;				
 J-107           	1161.367    	1.47        	                	;				
 J-108           	1302.905    	3.28        	                	;				
 J-109           	1167.968    	1.23        	                	;				
 J-11            	1207.613    	0.63        	                	;				
 J-110           	1171.785    	0.34        	                	;				
 J-111           	1236.559    	0.95        	                	;				
 J-112           	1183.917    	0.3         	                	;				
 J-113           	1238.089    	2.07        	                	;				
 J-114           	1225.412    	0.74        	                	;				
 J-115           	1211.812    	0.29        	                	;				
 J-116           	1215.685    	0.19        	                	;				
 J-117           	1220.968    	0.62        	                	;				
 J-118           	1260.711    	1.73        	                	;				
 J-119           	1188.872    	0.58        	                	;				
 J-12            	1192.927    	0.31        	                	;				
 J-120           	1196.361    	1.75        	                	;				
 J-121           	1178.326    	0.63        	                	;				
 J-122           	1180.035    	0.14        	                	;				
 J-123           	1186.941    	0.71        	                	;				
 J-124           	1201.999    	2.09        	                	;				
 J-125           	1167.102    	1.15        	                	;				
 J-126           	1166        	0.37        	                	;				
 J-127           	1294.203    	0.57        	                	;				
 J-128           	1297.724    	0           	                	;				
 J-129           	1181.423    	1.15        	                	;				
 J-13            	1251.041    	3.43        	                	;				
 J-130           	1182.968    	0.79        	                	;				
 J-131           	1182.068    	0.1         	                	;				
 J-132           	1197.618    	2.21        	                	;				
 J-133           	1208.893    	1.69        	                	;				
 J-134           	1210.77     	0.62        	                	;				
 J-135           	1174.907    	0.77        	                	;				
 J-136           	1207.899    	1.62        	                	;				
 J-137           	1181.169    	2.93        	                	;				
 J-138           	1217.145    	1.01        	                	;				
 J-139           	1252.994    	1.73        	                	;				
 J-14            	1237.54     	1.65        	                	;				
 J-140           	1257.493    	2.02        	                	;				
 J-141           	1280.454    	1.69        	                	;				
 J-142           	1271.451    	3.21        	                	;				
 J-143           	1160.797    	0.87        	                	;				
 J-144           	1180.276    	1.43        	                	;				
 J-145           	1250.315    	0.86        	                	;				
 J-146           	1224.473    	0.86        	                	;				
 J-147           	1222.007    	0.34        	                	;				
 J-148           	1264.144    	2.86        	                	;				
 J-149           	1259.237    	0.32        	                	;				
 J-15            	1219.199    	1.13        	                	;				
 J-150           	1222.561    	2.13        	                	;				
 J-151           	1236.114    	1.06        	                	;				
 J-152           	1210.151    	1.13        	                	;				
 J-153           	1158.454    	0.86        	                	;				
 J-154           	1232.546    	0.28        	                	;				
 J-155           	1231.714    	1.81        	                	;				
 J-156           	1203.97     	0.46        	                	;				
 J-157           	1242.557    	1.25        	                	;				
 J-158           	1231.478    	0.28        	                	;				
 J-159           	1308.104    	3.16        	                	;				
 J-16            	1204.487    	0.31        	                	;				
 J-160           	1247.925    	1.09        	                	;				
 J-161           	1309.601    	1.86        	                	;				
 J-162           	1253.772    	0.7         	                	;				
 J-163           	1174.835    	1.83        	                	;				
 J-164           	1197.173    	4.53        	                	;				
 J-165           	1153.118    	2.13        	                	;				
 J-166           	1258.261    	0           	                	;				
 J-167           	1299.45     	0           	                	;				
 J-168           	1188.044    	1.53        	                	;				
 J-169           	1189.864    	0.49        	                	;				
 J-17            	1237.806    	2.07        	                	;				
 J-170           	1255.336    	0.65        	                	;				
 J-171           	1264.363    	1.98        	                	;				
 J-172           	1286.719    	1.15        	                	;				
 J-173           	1175.472    	1.38        	                	;				
 J-174           	1235.267    	0.17        	                	;				
 J-175           	1237.482    	1.38        	                	;				
 J-176           	1204.172    	1.36        	                	;				
 J-177           	1223.675    	0.95        	                	;				
 J-178           	1175.881    	1.9         	                	;				
 J-179           	1163.632    	0.95        	                	;				
 J-18            	1235.625    	0.16        	                	;				
 J-180           	1175.053    	2.65        	                	;				
 J-181           	1214.522    	2.02        	                	;				
 J-182           	1177.712    	0.46        	                	;				
 J-183           	1260.37     	1.57        	                	;				
 J-184           	1278.538    	1.12        	                	;				
 J-185           	1226.267    	2.08        	                	;				
 J-186           	1227.649    	1.69        	                	;				
 J-187           	1183.86     	1.67        	                	;				
 J-188           	1235.31     	1.78        	                	;				
 J-189           	1233.973    	0.23        	                	;				
 J-19            	1179.431    	0.82        	                	;				
 J-190           	1289.303    	0.24        	                	;				
 J-191           	1295.37     	0.12        	                	;				
 J-192           	1291.452    	2.3         	                	;				
 J-193           	1296.629    	1           	                	;				
 J-194           	1216.888    	2.11        	                	;				
 J-195           	1287.212    	0.28        	                	;				
 J-196           	1212.807    	3.19        	                	;				
 J-197           	1220.546    	2.38        	                	;				
 J-198           	1217.736    	3           	                	;				
 J-199           	1217.569    	0.46        	                	;				
 J-2             	1234.863    	0.4         	                	;				
 J-20            	1210.767    	1.83        	                	;				
 J-200           	1274.893    	2.29        	                	;				
 J-201           	1260.147    	1.04        	                	;				
 J-202           	1236.054    	2.23        	                	;				
 J-203           	1182.076    	2.12        	                	;				
 J-204           	1184.95     	3.51        	                	;				
 J-205           	1271.757    	1.84        	                	;				
 J-206           	1287.134    	1.42        	                	;				
 J-207           	1266.367    	1.76        	                	;				
 J-208           	1271.907    	5.59        	                	;				
 J-209           	1233.495    	1.94        	                	;				
 J-21            	1275.963    	2.25        	                	;				
 J-210           	1196.76     	0.66        	                	;				
 J-211           	1162.019    	1.56        	                	;				
 J-212           	1163.341    	3.69        	                	;				
 J-213           	1244.72     	0.71        	                	;				
 J-214           	1169.747    	0.35        	                	;				
 J-215           	1253.187    	1.72        	                	;				
 J-216           	1237.508    	1.92        	                	;				
 J-217           	1175.771    	0.63        	                	;				
 J-218           	1206.78     	1.62        	                	;				
 J-219           	1237.792    	1.9         	                	;				
 J-22            	1181.896    	0.62        	                	;				
 J-220           	1218.46     	2.06        	                	;				
 J-221           	1340.446    	1.27        	                	;				
 J-222           	1183.74     	3.41        	                	;				
 J-223           	1158.849    	3.26        	                	;				
 J-224           	1190.881    	1.18        	                	;				
 J-225           	1194.345    	2           	                	;				
 J-226           	1219.047    	5.78        	                	;				
 J-227           	1267.571    	0.62        	                	;				
 J-228           	1198.038    	2.08        	                	;				
 J-229           	1216.913    	0.62        	                	;				
 J-23            	1180.023    	0.12        	                	;				
 J-230           	1208.992    	0.06        	                	;				
 J-231           	1222.051    	2.93        	                	;				
 J-232           	1213.794    	0.74        	                	;				
 J-233           	1203.103    	0           	                	;				
 J-234           	1278.26     	1.44        	                	;				
 J-235           	1183.981    	1.04        	                	;				
 J-236           	1177.205    	2.67        	                	;				
 J-237           	1218.085    	1.31        	                	;				
 J-238           	1239.747    	1.36        	                	;				
 J-239           	1173.238    	0.65        	                	;				
 J-24            	1243.113    	0           	                	;				
 J-240           	1176.495    	0.35        	                	;				
 J-241           	1276.251    	1.6         	                	;				
 J-242           	1209.918    	0.45        	                	;				
 J-243           	1264.484    	0.76        	                	;				
 J-244           	1195.8      	1.57        	                	;				
 J-245           	1191.195    	2.52        	                	;				
 J-246           	1264.844    	0.29        	                	;				
 J-247           	1257.488    	0.37        	                	;				
 J-248           	1184.536    	0.55        	                	;				
 J-249           	1180.717    	0.13        	                	;				
 J-25            	1231.009    	1.77        	                	;				
 J-250           	1185.752    	0.53        	                	;				
 J-251           	1252.92     	0.58        	                	;				
 J-252           	1160.278    	0.24        	                	;				
 J-253           	1153.047    	1.49        	                	;				
 J-254           	1238.776    	0.85        	                	;				
 J-255           	1264.352    	0.66        	                	;				
 J-256           	1193.155    	0.91        	                	;				
 J-257           	1178.125    	0.56        	                	;				
 J-258           	1228.982    	0.36        	                	;				
 J-259           	1209.051    	1.04        	                	;				
 J-26            	1279.98     	4.03        	                	;				
 J-260           	1209.398    	0.41        	                	;				
 J-261           	1217.27     	1.14        	                	;				
 J-262           	1201.27     	2.64        	                	;				
 J-263           	1175.561    	6.06        	                	;				
 J-264           	1203.714    	4.91        	                	;				
 J-265           	1194.955    	3.33        	                	;				
 J-266           	1200.106    	0.92        	                	;				
 J-267           	1195.52     	0.19        	                	;				
 J-268           	1180.881    	2.2         	                	;				
 J-269           	1183.262    	0.67        	                	;				
 J-27            	1230.091    	4.91        	                	;				
 J-270           	1253.428    	2.06        	                	;				
 J-271           	1177.501    	0.85        	                	;				
 J-272           	1185.875    	4.27        	                	;				
 J-273           	1216.746    	1.24        	                	;				
 J-274           	1235.285    	0.34        	                	;				
 J-275           	1182.274    	0.23        	                	;				
 J-276           	1183.257    	0.41        	                	;				
 J-277           	1212.515    	3.25        	                	;				
 J-278           	1196.946    	3.95        	                	;				
 J-279           	1187.506    	1.62        	                	;				
 J-28            	1309.144    	4.15        	                	;				
 J-280           	1185.808    	1.13        	                	;				
 J-281           	1178.531    	1.5         	                	;				
 J-282           	1241        	1.19        	                	;				
 J-283           	1208.312    	0.41        	                	;				
 J-284           	1175.446    	1.16        	                	;				
 J-285           	1171.997    	0.34        	                	;				
 J-286           	1301.113    	1.38        	                	;				
 J-287           	1265.894    	1.32        	                	;				
 J-288           	1279.714    	0.23        	                	;				
 J-289           	1204.988    	1.81        	                	;				
 J-29            	1251.702    	1.41        	                	;				
 J-290           	1255.309    	2.45        	                	;				
 J-291           	1269.355    	0.98        	                	;				
 J-292           	1243.656    	1.82        	                	;				
 J-293           	1285.078    	1.07        	                	;				
 J-294           	1257.595    	2.81        	                	;				
 J-295           	1323.55     	1.52        	                	;				
 J-296           	1182.688    	1.18        	                	;				
 J-297           	1204.075    	2.08        	                	;				
 J-298           	1157.775    	1.14        	                	;				
 J-299           	1159.082    	2.1         	                	;				
 J-3             	1213.957    	6.97        	                	;				
 J-30            	1234.728    	0.31        	                	;				
 J-300           	1223.892    	1.86        	                	;				
 J-301           	1255.222    	1.39        	                	;				
 J-302           	1222.274    	0.85        	                	;				
 J-303           	1176.83     	2.8         	                	;				
 J-304           	1151.995    	1.3         	                	;				
 J-305           	1149.474    	0.4         	                	;				
 J-306           	1217.918    	1.57        	                	;				
 J-307           	1176.411    	0.69        	                	;				
 J-308           	1284.707    	0.4         	                	;				
 J-309           	1295.93     	1.15        	                	;				
 J-31            	1232.471    	0.12        	                	;				
 J-310           	1230.658    	0.63        	                	;				
 J-311           	1241.787    	0.37        	                	;				
 J-312           	1249.043    	1.34        	                	;				
 J-313           	1201.375    	0.47        	                	;				
 J-314           	1226.36     	2.34        	                	;				
 J-315           	1225.259    	0.94        	                	;				
 J-316           	1161.187    	0.45        	                	;				
 J-317           	1161.994    	1.29        	                	;				
 J-318           	1226.814    	0.86        	                	;				
 J-319           	1246.249    	0.5         	                	;				
 J-32            	1224.801    	1.23        	                	;				
 J-320           	1217.552    	0.69        	                	;				
 J-321           	1211.699    	0.41        	                	;				
 J-322           	1210.838    	2.45        	                	;				
 J-323           	1236.943    	0.82        	                	;				
 J-324           	1234.582    	0.47        	                	;				
 J-325           	1224.212    	3.5         	                	;				
 J-326           	1246.894    	0.32        	                	;				
 J-327           	1229.428    	3.7         	                	;				
 J-328           	1147.487    	0.06        	                	;				
 J-329           	1211.309    	2.01        	                	;				
 J-33            	1207.223    	0.74        	                	;				
 J-330           	1265.898    	0.12        	                	;				
 J-331           	1217.105    	0.62        	                	;				
 J-332           	1205.169    	1.79        	                	;				
 J-333           	1244.045    	1.19        	                	;				
 J-335           	1181.114    	0.88        	                	;				
 J-336           	1198.77     	3.04        	                	;				
 J-337           	1238.218    	1.97        	                	;				
 J-338           	1221.914    	1.54        	                	;				
 J-339           	1199.428    	1.94        	                	;				
 J-34            	1170.032    	1.82        	                	;				
 J-340           	1257.725    	0.86        	                	;				
 J-341           	1229.805    	2.65        	                	;				
 J-342           	1277.471    	1.75        	                	;				
 J-343           	1258.544    	0.13        	                	;				
 J-344           	1219.928    	1.27        	                	;				
 J-345           	1161.112    	0.35        	                	;				
 J-346           	1258.852    	2.1         	                	;				
 J-347           	1195.817    	2.78        	                	;				
 J-348           	1160.688    	0.66        	                	;				
 J-349           	1154.807    	0.09        	                	;				
 J-35            	1166.306    	0.87        	                	;				
 J-350           	1226.212    	0.92        	                	;				
 J-351           	1259.437    	6.2         	                	;				
 J-352           	1272.128    	5.16        	                	;				
 J-353           	1245.779    	0.27        	                	;				
 J-354           	1261.412    	2.77        	                	;				
 J-355           	1248.885    	1.24        	                	;				
 J-356           	1158.94     	0.35        	                	;				
 J-357           	1307.769    	2.13        	                	;				
 J-358           	1283.249    	1.27        	                	;				
 J-359           	1273.063    	0.76        	                	;				
 J-36            	1295.491    	2.93        	                	;				
 J-360           	1275.818    	0.6         	                	;				
 J-361           	1244.459    	0.57        	                	;				
 J-362           	1243.896    	1.11        	                	;				
 J-363           	1237.461    	2.66        	                	;				
 J-364           	1204.969    	1.33        	                	;				
 J-365           	1227.836    	0.07        	                	;				
 J-366           	1222.407    	0.83        	                	;				
 J-367           	1183.203    	0.91        	                	;				
 J-368           	1228.848    	0.18        	                	;				
 J-369           	1233.299    	0.74        	                	;				
 J-37            	1307.87     	1.5         	                	;				
 J-370           	1152.991    	3.92        	                	;				
 J-371           	1150.304    	2.62        	                	;				
 J-372           	1165.941    	1.18        	                	;				
 J-373           	1162.312    	4.53        	                	;				
 J-374           	1175.999    	0.77        	                	;				
 J-375           	1175.036    	0.53        	                	;				
 J-376           	1173.411    	1.35        	                	;				
 J-377           	1173.253    	0.92        	                	;				
 J-378           	1175.748    	2.56        	                	;				
 J-379           	1203.001    	1.36        	                	;				
 J-38            	1177.354    	0.35        	                	;				
 J-380           	1176.102    	0.64        	                	;				
 J-381           	1289.997    	3.08        	                	;				
 J-382           	1253.299    	3.26        	                	;				
 J-383           	1243.46     	3.04        	                	;				
 J-384           	1182.556    	1.05        	                	;				
 J-385           	1199.689    	0.81        	                	;				
 J-386           	1212.265    	0.5         	                	;				
 J-387           	1211        	1.23        	                	;				
 J-388           	1250.18     	1.25        	                	;				
 J-389           	1202.351    	2.99        	                	;				
 J-39            	1178.085    	0.64        	                	;				
 J-390           	1287.344    	1.75        	                	;				
 J-391           	1245.989    	1.8         	                	;				
 J-392           	1226.351    	0.78        	                	;				
 J-393           	1251.073    	4.03        	                	;				
 J-394           	1210.385    	2.06        	                	;				
 J-395           	1226.922    	0.31        	                	;				
 J-396           	1246.446    	1.38        	                	;				
 J-399           	1263.835    	3.19        	                	;				
 J-4             	1218.932    	4.7         	                	;				
 J-40            	1234.845    	0.86        	                	;				
 J-400           	1217.159    	1.08        	                	;				
 J-401           	1239.295    	2.12        	                	;				
 J-402           	1152.661    	0.26        	                	;				
 J-403           	1224.956    	1.82        	                	;				
 J-404           	1217.338    	1.15        	                	;				
 J-405           	1159.776    	0.51        	                	;				
 J-406           	1183.177    	2.06        	                	;				
 J-407           	1182.99     	2.53        	                	;				
 J-408           	1241.319    	0.72        	                	;				
 J-409           	1181.587    	0.37        	                	;				
 J-41            	1261.179    	0.35        	                	;				
 J-410           	1220.86     	4.28        	                	;				
 J-411           	1184.494    	3.02        	                	;				
 J-412           	1178.145    	4.19        	                	;				
 J-413           	1179.982    	0.57        	                	;				
 J-414           	1220.027    	3.88        	                	;				
 J-415           	1219.638    	1.3         	                	;				
 J-416           	1226.407    	1.7         	                	;				
 J-417           	1278.308    	0.07        	                	;				
 J-418           	1270.681    	0.04        	                	;				
 J-419           	1179.776    	0.16        	                	;				
 J-42            	1287.995    	2.38        	                	;				
 J-420           	1196.578    	2.74        	                	;				
 J-421           	1164.745    	0.12        	                	;				
 J-422           	1196.345    	1.35        	                	;				
 J-423           	1182.978    	0.88        	                	;				
 J-424           	1199.25     	0.71        	                	;				
 J-425           	1254.126    	0.99        	                	;				
 J-426           	1268.613    	0.92        	                	;				
 J-427           	1262.537    	6.07        	                	;				
 J-428           	1256.068    	1.21        	                	;				
 J-429           	1248.833    	1.05        	                	;				
 J-43            	1267.751    	2.55        	                	;				
 J-430           	1228.717    	4.22        	                	;				
 J-431           	1233.969    	1.12        	                	;				
 J-432           	1273.123    	0.38        	                	;				
 J-433           	1178.259    	0.62        	                	;				
 J-434           	1187.022    	1.32        	                	;				
 J-435           	1190.72     	0.75        	                	;				
 J-436           	1220.705    	0.69        	                	;				
 J-437           	1214.111    	1.31        	                	;				
 J-438           	1255.841    	1.12        	                	;				
 J-439           	1226.26     	1.55        	                	;				
 J-44            	1189.114    	2.76        	                	;				
 J-440           	1226.996    	1.1         	                	;				
 J-441           	1244.72     	0.84        	                	;				
 J-442           	1239.633    	1.38        	                	;				
 J-443           	1219.202    	0.74        	                	;				
 J-444           	1238.024    	1.18        	                	;				
 J-445           	1262.222    	1.89        	                	;				
 J-446           	1278.128    	0.9         	                	;				
 J-447           	1162.396    	1.68        	                	;				
 J-448           	1161.984    	0.96        	                	;				
 J-449           	1219.036    	0.89        	                	;				
 J-45            	1199.635    	1.51        	                	;				
 J-450           	1167.098    	0.26        	                	;				
 J-451           	1257.713    	4.22        	                	;				
 J-452           	1211.363    	1.15        	                	;				
 J-453           	1249.432    	1.42        	                	;				
 J-454           	1157.333    	1.48        	                	;				
 J-455           	1225.161    	4.61        	                	;				
 J-456           	1175.167    	5.49        	                	;				
 J-457           	1174.848    	1.33        	                	;				
 J-458           	1168.768    	1.07        	                	;				
 J-459           	1204.16     	3.55        	                	;				
 J-46            	1287.598    	0.21        	                	;				
 J-460           	1162.908    	3.75        	                	;				
 J-461           	1251.888    	1.6         	                	;				
 J-462           	1245.38     	1.61        	                	;				
 J-463           	1172.778    	1.05        	                	;				
 J-464           	1176.441    	0.43        	                	;				
 J-465           	1162.048    	0.25        	                	;				
 J-466           	1230.988    	0.56        	                	;				
 J-467           	1227.527    	0.47        	                	;				
 J-468           	1219.029    	2.05        	                	;				
 J-469           	1199.277    	0.77        	                	;				
 J-47            	1294.01     	0.14        	                	;				
 J-470           	1237.827    	0.6         	                	;				
 J-471           	1182.114    	4.78        	                	;				
 J-472           	1324.777    	1.24        	                	;				
 J-473           	1234.608    	3.87        	                	;				
 J-474           	1232.703    	1.78        	                	;				
 J-475           	1214.118    	0.38        	                	;				
 J-476           	1300.882    	1.16        	                	;				
 J-477           	1206        	4.49        	                	;				
 J-478           	1178.767    	0.38        	                	;				
 J-479           	1215.318    	1.58        	                	;				
 J-48            	1229.844    	2.34        	                	;				
 J-480           	1203.735    	1           	                	;				
 J-481           	1226.806    	0.69        	                	;				
 J-482           	1185.936    	0.95        	                	;				
 J-483           	1214.818    	0.8         	                	;				
 J-484           	1187.198    	1.05        	                	;				
 J-485           	1193.419    	0.28        	                	;				
 J-486           	1274.321    	1.61        	                	;				
 J-487           	1236.376    	2.24        	                	;				
 J-488           	1242.583    	2.09        	                	;				
 J-489           	1243.756    	1.04        	                	;				
 J-49            	1231.329    	4.21        	                	;				
 J-490           	1246.851    	0.33        	                	;				
 J-491           	1252.526    	1.13        	                	;				
 J-492           	1224.22     	1.64        	                	;				
 J-493           	1190.779    	1.44        	                	;				
 J-494           	1193.966    	0.82        	                	;				
 J-495           	1215.816    	1.25        	                	;				
 J-496           	1238.04     	1.13        	                	;				
 J-497           	1199.759    	5.07        	                	;				