
[TITLE]


[JUNCTIONS]
;ID              	Elev        	Demand      	Pattern         
 J-1             	643.6125    	2           	                	;				
 J-10            	699.2517    	0.5         	                	;				
 J-100           	706.6241    	0.9         	                	;				
 J-101           	721.9749    	1.9         	                	;				
 J-102           	699         	2.3         	                	;				
 J-103           	700.1707    	0.4         	                	;				
 J-104           	661.9227    	2           	                	;				
 J-105           	620.8951    	3.3         	                	;				
 J-106           	702.9526    	0.2         	                	;				
 J-107           	724.6389    	2.7         	                	;				
 J-108           	714.287     	8.3         	                	;				
 J-109           	677.0813    	2.1         	                	;				
 J-11            	639.8109    	0           	                	;				
 J-110           	697.841     	6           	                	;				
 J-111           	722.9426    	4.6         	                	;				
 J-112           	699.6057    	7.2         	                	;				
 J-113           	751.429     	1.3         	                	;				
 J-114           	747.5352    	0           	                	;				
 J-115           	718.5488    	1.1         	                	;				
 J-116           	749.7524    	10          	                	;				
 J-117           	737.0958    	6.5         	                	;				
 J-118           	757.892     	1.6         	                	;				
 J-119           	706.8279    	0           	                	;				
 J-12            	654.2697    	0           	                	;				
 J-120           	719.4997    	1.4         	                	;				
 J-121           	658.1661    	2.3         	                	;				
 J-122           	684.7508    	1.8         	                	;				
 J-123           	736.569     	0.6         	                	;				
 J-124           	737.1031    	0.7         	                	;				
 J-125           	756.1769    	0.6         	                	;				
 J-126           	750.9568    	1.4         	                	;				
 J-127           	752.6689    	1.7         	                	;				
 J-128           	696.2079    	8.7         	                	;				
 J-129           	720.2266    	3           	                	;				
 J-13            	700.7192    	4.5         	                	;				
 J-130           	622.5479    	15.2        	                	;				
 J-132           	755.6663    	1.6         	                	;				
 J-133           	745.0037    	0.9         	                	;				
 J-134           	744.9968    	0.4         	                	;				
 J-135           	614.4324    	1.8         	                	;				
 J-136           	568.7617    	2.6         	                	;				
 J-137           	713.144     	3.1         	                	;				
 J-138           	748.9752    	0.4         	                	;				
 J-139           	726.5599    	0.5         	                	;				
 J-14            	728.1481    	2.3         	                	;				
 J-140           	700.8099    	0.5         	                	;				
 J-141           	677.5147    	1           	                	;				
 J-142           	679.8157    	0.4         	                	;				
 J-143           	679.1898    	1           	                	;				
 J-144           	730.7416    	1.1         	                	;				
 J-145           	746.7308    	0.7         	                	;				
 J-146           	726.3184    	0.7         	                	;				
 J-147           	720.9639    	2.7         	                	;				
 J-148           	716.0075    	0.4         	                	;				
 J-149           	711.5045    	3.1         	                	;				
 J-15            	708.2805    	3.7         	                	;				
 J-150           	711.5497    	0.7         	                	;				
 J-151           	713.5779    	1.3         	                	;				
 J-152           	660.092     	1.1         	                	;				
 J-153           	673.2422    	5.8         	                	;				
 J-154           	662.0144    	1.2         	                	;				
 J-155           	655.0755    	2.6         	                	;				
 J-156           	726.9587    	1           	                	;				
 J-157           	721.9517    	1.9         	                	;				
 J-158           	693.6124    	2.3         	                	;				
 J-159           	700.7714    	6.3         	                	;				
 J-16            	709.0622    	5.1         	                	;				
 J-160           	708.5355    	6.3         	                	;				
 J-161           	752.8376    	0.5         	                	;				
 J-162           	648.4593    	1.5         	                	;				
 J-163           	661.763     	2.2         	                	;				
 J-164           	745.0728    	0.6         	                	;				
 J-165           	739.3818    	0.6         	                	;				
 J-166           	677.7961    	7.6         	                	;				
 J-167           	628.4075    	13.7        	                	;				
 J-168           	680.0114    	2           	                	;				
 J-169           	692.4512    	0.7         	                	;				
 J-17            	670.1029    	8           	                	;				
 J-170           	726.1071    	0.6         	                	;				
 J-171           	707.0815    	0.4         	                	;				
 J-172           	721.5562    	1.3         	                	;				
 J-173           	690.7065    	0.8         	                	;				
 J-174           	714.9791    	0.4         	                	;				
 J-175           	732.9838    	1.4         	                	;				
 J-176           	697.326     	0.3         	                	;				
 J-177           	680.2117    	0.9         	                	;				
 J-178           	681.6132    	0.6         	                	;				
 J-179           	685.8229    	0.9         	                	;				
 J-18            	672.5078    	14.6        	                	;				
 J-180           	687.5209    	0.4         	                	;				
 J-181           	715.0813    	1.1         	                	;				
 J-182           	699.1184    	0.3         	                	;				
 J-183           	719.3694    	0.8         	                	;				
 J-184           	670.1994    	0.6         	                	;				
 J-185           	707.3434    	1.8         	                	;				
 J-186           	743.3083    	3.2         	                	;				
 J-187           	646.5865    	0.6         	                	;				
 J-188           	748.9653    	0.4         	                	;				
 J-189           	787.8117    	1.2         	                	;				
 J-19            	662.1807    	3           	                	;				
 J-190           	785.3893    	4.1         	                	;				
 J-191           	758.5847    	7.2         	                	;				
 J-192           	728.7211    	2.4         	                	;				
 J-193           	700.9354    	2.4         	                	;				
 J-194           	714.6756    	1.4         	                	;				
 J-195           	715.3506    	1           	                	;				
 J-196           	797.8422    	1.3         	                	;				
 J-197           	806.4025    	0.8         	                	;				
 J-198           	667.8842    	2.3         	                	;				
 J-199           	666.7734    	3           	                	;				
 J-2             	691.5479    	3           	                	;				
 J-20            	639.9435    	13.3        	                	;				
 J-200           	719.5262    	0.7         	                	;				
 J-201           	701.1988    	1.5         	                	;				
 J-202           	808.8744    	0.3         	                	;				
 J-203           	803.7195    	1.7         	                	;				
 J-204           	691.5361    	0.7         	                	;				
 J-205           	726.3391    	1.2         	                	;				
 J-206           	661.3133    	0.6         	                	;				
 J-207           	747.6619    	0.2         	                	;				
 J-208           	725.7711    	0.2         	                	;				
 J-209           	706.4233    	3           	                	;				
 J-21            	675.5066    	14.5        	                	;				
 J-210           	715.0793    	1.9         	                	;				
 J-211           	677.7067    	1.4         	                	;				
 J-212           	721.8593    	1.1         	                	;				
 J-213           	620.2164    	0.4         	                	;				
 J-214           	625.3647    	0.2         	                	;				
 J-215           	644.0563    	0.4         	                	;				
 J-216           	767.1385    	1.7         	                	;				
 J-217           	777.1094    	4.3         	                	;				
 J-218           	726.4224    	2.3         	                	;				
 J-219           	735.7269    	2.5         	                	;				
 J-22            	730.9838    	2           	                	;				
 J-220           	661.0286    	0.9         	                	;				
 J-221           	654.9487    	0.5         	                	;				
 J-222           	647.1282    	1.9         	                	;				
 J-223           	666.9501    	1.2         	                	;				
 J-224           	660.5461    	0.8         	                	;				
 J-225           	739.2662    	1.5         	                	;				
 J-226           	743.9206    	0.5         	                	;				
 J-227           	743.3279    	1.9         	                	;				
 J-228           	692.835     	1.7         	                	;				
 J-229           	687.5063    	1.1         	                	;				
 J-23            	724.4074    	13.1        	                	;				
 J-230           	784.5536    	2.5         	                	;				
 J-231           	650.3597    	3.3         	                	;				
 J-232           	648.5925    	0.2         	                	;				
 J-233           	758.587     	0.4         	                	;				
 J-234           	761.2057    	1.7         	                	;				
 J-235           	648.4175    	0.6         	                	;				
 J-236           	646.1559    	0.6         	                	;				
 J-237           	708.1414    	1.8         	                	;				
 J-238           	733.8907    	3.7         	                	;				
 J-239           	623.5656    	3.5         	                	;				
 J-24            	708.5902    	3.2         	                	;				
 J-240           	631.0914    	2.2         	                	;				
 J-241           	681.6094    	0.6         	                	;				
 J-242           	722.9388    	3.9         	                	;				
 J-243           	729.0598    	1.3         	                	;				
 J-244           	619.0154    	0.4         	                	;				
 J-245           	619.0328    	2.3         	                	;				
 J-246           	673.9817    	1.5         	                	;				
 J-247           	646.0821    	1           	                	;				
 J-248           	802.7411    	1.1         	                	;				
 J-249           	744.4558    	0.5         	                	;				
 J-25            	754.4199    	3           	                	;				
 J-250           	757.805     	0           	                	;				
 J-251           	745.1602    	0.6         	                	;				
 J-252           	743.9971    	0.3         	                	;				
 J-253           	744.001     	0.4         	                	;				
 J-254           	742.0944    	0.7         	                	;				
 J-255           	727.7844    	4.3         	                	;				
 J-256           	712.7849    	2.2         	                	;				
 J-257           	634.8331    	0.9         	                	;				
 J-258           	639.0853    	0.5         	                	;				
 J-259           	730.2886    	2.4         	                	;				
 J-26            	750.1595    	1.2         	                	;				
 J-260           	718.0557    	1.4         	                	;				
 J-261           	786.4194    	3.6         	                	;				
 J-262           	754.8816    	3.2         	                	;				
 J-263           	736.821     	1.1         	                	;				
 J-264           	733.1737    	3.6         	                	;				
 J-265           	705.4413    	1.8         	                	;				
 J-266           	641.3671    	2.5         	                	;				
 J-267           	722.5134    	1.5         	                	;				
 J-268           	736.6317    	3.8         	                	;				
 J-269           	728.5175    	1.5         	                	;				
 J-27            	746.7093    	2.5         	                	;				
 J-270           	733.2495    	1.9         	                	;				
 J-271           	682.1855    	3.1         	                	;				
 J-272           	646.6413    	2.4         	                	;				
 J-273           	576.0055    	1.8         	                	;				
 J-274           	745.3016    	3.9         	                	;				
 J-275           	734.1326    	2.7         	                	;				
 J-276           	729.154     	1           	                	;				
 J-277           	723.0098    	1.4         	                	;				
 J-278           	725.5107    	0.3         	                	;				
 J-279           	632.608     	0           	                	;				
 J-279a          	694.7078    	4.1         	                	;				
 J-279b          	698.4673    	1.7         	                	;				
 J-279c          	722.8555    	4.5         	                	;				
 J-279d          	732.8305    	6.1         	                	;				
 J-28            	727.4074    	1.2         	                	;				
 J-280           	729.6555    	0.4         	                	;				
 J-281           	684.0764    	3.3         	                	;				
 J-282           	710.942     	0.8         	                	;				
 J-283           	728.825     	2           	                	;				
 J-284           	749.7438    	1.8         	                	;				
 J-285           	730.8912    	0.3         	                	;				
 J-286           	719.6233    	1.1         	                	;				
 J-287           	676.799     	9.4         	                	;				
 J-288           	723.4586    	2.6         	                	;				
 J-289           	628.9413    	3           	                	;				
 J-29            	748.8252    	0.4         	                	;				
 J-290           	643.9691    	0           	                	;				
 J-291           	635.4633    	0.7         	                	;				
 J-292           	705.6591    	2.5         	                	;				
 J-293           	640.2685    	3.1         	                	;				
 J-294           	687.4729    	2.7         	                	;				
 J-295           	759.9334    	0.2         	                	;				
 J-296           	755.5684    	0.8         	                	;				
 J-297           	757.2551    	1.1         	                	;				
 J-298           	757.1677    	1.9         	                	;				
 J-299           	635.119     	2.4         	                	;				
 J-3             	699.3776    	1.3         	                	;				
 J-30            	641.6505    	0           	                	;				
 J-300           	675.9158    	0.2         	                	;				
 J-301           	737.4558    	14.5        	                	;				
 J-302           	695.392     	15.3        	                	;				
 J-303           	747.1337    	0.7         	                	;				
 J-304           	751.1572    	1           	                	;				
 J-305           	653.7792    	0           	                	;				
 J-306           	736.7504    	3.2         	                	;				
 J-307           	742.8175    	0.6         	                	;				
 J-308           	671.7853    	2.9         	                	;				
 J-309           	662.4697    	2.4         	                	;				
 J-30a           	734.9035    	4.5         	                	;				
 J-30c           	730.9496    	2.1         	                	;				
 J-31            	796.2919    	3.9         	                	;				
 J-310           	729.6563    	0.7         	                	;				
 J-311           	727.6553    	0.2         	                	;				
 J-312           	745.1714    	1.1         	                	;				
 J-313           	665.5409    	0           	                	;				
 J-314           	757.3111    	0.2         	                	;				
 J-315           	755.9917    	0.3         	                	;				
 J-316           	747.124     	0.4         	                	;				
 J-317           	595.5911    	0.8         	                	;				
 J-318           	706.2422    	1.9         	                	;				
 J-319           	729.8044    	2           	                	;				
 J-32            	656.2264    	1.3         	                	;				
 J-320           	753.1742    	0.8         	                	;				
 J-321           	737.817     	7.1         	                	;				
 J-322           	690.9702    	2.7         	                	;				
 J-323           	664.9874    	0.8         	                	;				
 J-324           	664.9387    	0.7         	                	;				
 J-325           	676.3726    	3.1         	                	;				
 J-326           	664.7787    	4           	                	;				
 J-327           	758.9628    	0           	                	;				
 J-328           	757.8595    	0           	                	;				
 J-329           	723.2094    	0.8         	                	;				
 J-330           	639.6691    	1.6         	                	;				
 J-331           	639.2299    	6.6         	                	;				
 J-332           	716.2867    	0.8         	                	;				
 J-333           	746.8603    	4.7         	                	;				
 J-334           	699.1787    	1           	                	;				
 J-335           	690.7701    	0.6         	                	;				
 J-336           	612.6066    	1.1         	                	;				
 J-337           	707.5329    	1.5         	                	;				
 J-338           	646.7208    	3.5         	                	;				
 J-339           	577.519     	2           	                	;				
 J-34            	719.7644    	5.1         	                	;				
 J-340           	756.0731    	1.4         	                	;				
 J-341           	729.5407    	0.8         	                	;				
 J-342           	723.4368    	2           	                	;				
 J-343           	742.2394    	0.4         	                	;				
 J-344           	668.2103    	0           	                	;				
 J-345           	697.7388    	1           	                	;				
 J-346           	694.8021    	1           	                	;				
 J-347           	724.9914    	3.5         	                	;				
 J-348           	751.4607    	3           	                	;				
 J-349           	736.0372    	1.6         	                	;				
 J-35            	701.0314    	3.2         	                	;				
 J-350           	746.9274    	3.3         	                	;				
 J-351           	756.8616    	0.3         	                	;				
 J-352           	703.8218    	2           	                	;				
 J-353           	698.7494    	5.6         	                	;				
 J-354           	742.0058    	6           	                	;				
 J-355           	801.1042    	1           	                	;				
 J-356           	694.3318    	5.8         	                	;				
 J-357           	679.484     	3.8         	                	;				
 J-358           	641.1918    	0.2         	                	;				
 J-359           	623.0101    	0.3         	                	;				
 J-36            	749.6347    	2.2         	                	;				
 J-360           	701.7468    	0.7         	                	;				
 J-361           	662.4772    	0.4         	                	;				
 J-362           	647.4205    	0.5         	                	;				
 J-363           	644.281     	0.2         	                	;				
 J-364           	723.5623    	1.1         	                	;				
 J-365           	672.347     	4.8         	                	;				
 J-366           	731.1339    	1.1         	                	;				
 J-367           	745.5449    	0.3         	                	;				
 J-368           	754.0531    	0.6         	                	;				
 J-37            	737.2794    	1.1         	                	;				
 J-370           	787.6113    	2.1         	                	;				
 J-371           	717.4294    	0           	                	;				
 J-373           	760.9945    	0           	                	;				
 J-374           	747.6749    	0.5         	                	;				
 J-375           	758.2205    	0           	                	;				
 J-376           	748.7636    	0.3         	                	;				
 J-377           	714.0132    	1.2         	                	;				
 J-378           	727.9954    	1.3         	                	;				
 J-379           	664.5673    	1.2         	                	;				
 J-38            	778.0533    	10.3        	                	;				
 J-380           	756.9037    	0.5         	                	;				
 J-381           	761.0009    	0           	                	;				
 J-382           	709.019     	3.8         	                	;				
 J-383           	726.4497    	3.8         	                	;				
 J-384           	755.5746    	0.8         	                	;				
 J-385           	681.0746    	6.4         	                	;				
 J-386           	707.8671    	3.6         	                	;				
 J-387           	696.8563    	0.3         	                	;				
 J-388           	729.8748    	0.6         	                	;				
 J-389           	742.9648    	0.5         	                	;				
 J-39            	718.833     	8.7         	                	;				
 J-390           	659.7955    	0.7         	                	;				
 J-391           	734.2992    	2.1         	                	;				
 J-392           	733.1375    	1.2         	                	;				
 J-393           	745.1375    	0.3         	                	;				
 J-394           	717.9465    	1.9         	                	;				
 J-395           	658.7728    	2.5         	                	;				
 J-396           	682.6063    	2.2         	                	;				
 J-397           	664.1751    	0           	                	;				
 J-398           	727.3901    	1.7         	                	;				
 J-399           	741.3782    	0.6         	                	;				
 J-4             	699.3403    	1.3         	                	;				
 J-40            	740.8661    	6.6         	                	;				
 J-400           	726.8157    	1.7         	                	;				
 J-401           	724.9912    	1.4         	                	;				
 J-402           	0           	0           	                	;				
 J-403           	0           	0           	                	;				
 J-404           	717.0602    	0           	                	;				
 J-405           	644.2443    	3.7         	                	;				
 J-406           	698.3257    	0.5         	                	;				
 J-407           	700.4443    	0.4         	                	;				
 J-408           	731.6746    	3.6         	                	;				
 J-409           	732.207     	2           	                	;				
 J-41            	743.3571    	3.4         	                	;				
 J-410           	724.4658    	2.3         	                	;				
 J-411           	729.9709    	0.7         	                	;				
 J-412           	729.0663    	0.4         	                	;				
 J-413           	749.4981    	1.2         	                	;				
 J-414           	754.4094    	0.9         	                	;				
 J-415           	668.921     	5.3         	                	;				
 J-416           	725.4373    	3.9         	                	;				
 J-417           	757.0124    	1           	                	;				
 J-418           	753.261     	0.3         	                	;				
 J-419           	761.3789    	0.3         	                	;				
 J-42            	724.035     	0.6         	                	;				
 J-420           	752.7452    	0.5         	                	;				
 J-421           	740.382     	2.1         	                	;				
 J-422           	749.44      	0.4         	                	;				
 J-423           	719.5223    	1.6         	                	;				
 J-424           	734.7084    	2.2         	                	;				
 J-425           	808.5627    	2.1         	                	;				
 J-426           	736.9559    	1           	                	;				
 J-427           	741.9988    	3.1         	                	;				
 J-428           	808.0463    	0.8         	                	;				
 J-429           	742.7495    	1.1         	                	;				
 J-43            	722.0311    	5           	                	;				
 J-430           	736.9       	1.3         	                	;				
 J-431           	639.171     	3.2         	                	;				
 J-432           	740.2863    	0.9         	                	;				
 J-433           	782.9904    	4.5         	                	;				
 J-434           	773.4643    	2.6         	                	;				
 J-435           	741.612     	3.5         	                	;				
 J-436           	740.427     	1.1         	                	;				
 J-437           	729.7877    	1.4         	                	;				
 J-438           	746.1234    	1.7         	                	;				
 J-439           	726.066     	3           	                	;				
 J-44            	571.9886    	2           	                	;				
 J-440           	738.712     	2.7         	                	;				
 J-441           	779.5622    	0.8         	                	;				
 J-442           	780.3383    	1.4         	                	;				
 J-443           	707.9972    	1.8         	                	;				
 J-444           	728.2292    	1.4         	                	;				
 J-445           	685.3956    	3           	                	;				
 J-446           	730.0798    	1.3         	                	;				
 J-447           	709.9551    	0.5         	                	;				
 J-448           	712.2189    	0.2         	                	;				
 J-449           	706.6934    	8.7         	                	;				
 J-45            	701.7426    	6.3         	                	;				
 J-450           	801.6972    	3           	                	;				
 J-451           	756.1406    	3.9         	                	;				
 J-452           	740.267     	1.6         	                	;				
 J-453           	746.7767    	3.3         	                	;				
 J-454           	697.5497    	3.6         	                	;				
 J-455           	708.936     	0.7         	                	;				
 J-456           	718.4388    	3.1         	                	;				
 J-457           	739.3159    	0.7         	                	;				
 J-458           	736.2476    	0.3         	                	;				
 J-459           	647.879     	0           	                	;				
 J-46            	736.8795    	2.1         	                	;				
 J-460           	730.0996    	7.2         	                	;				
 J-461           	730.6989    	8           	                	;				
 J-462           	793.2693    	1.5         	                	;				
 J-463           	780.3585    	0.9         	                	;				
 J-464           	739.9327    	2.8         	                	;				
 J-465           	747.737     	0.9         	                	;				
 J-466           	735.0383    	5.7         	                	;				
 J-467           	712.8026    	0.9         	                	;				
 J-468           	753.3873    	0.9         	                	;				
 J-469           	752.1991    	1.1         	                	;				
 J-47            	723.9783    	1.7         	                	;				
 J-471           	748.7955    	0.3         	                	;				
 J-472           	753.7001    	0.8         	                	;				
 J-473           	749.6799    	0.6         	                	;				
 J-474           	701.2809    	2.2         	                	;				
 J-475           	751.9648    	2           	                	;				
 J-476           	762.0748    	0.4         	                	;				
 J-477           	742.4354    	0.4         	                	;				
 J-478           	733.7653    	3.8         	                	;				
 J-479           	740.9584    	0.6         	                	;				
 J-48            	723.6882    	2           	                	;				
 J-480           	754.2413    	1.7         	                	;				
 J-481           	741.5432    	3           	                	;				
 J-482           	722.2722    	1.2         	                	;				
 J-483           	700.1282    	0.6         	                	;				
 J-484           	743.1292    	2.9         	                	;				
 J-485           	746.8118    	2.8         	                	;				
 J-486           	705.3309    	1.8         	                	;				
 J-487           	743.9613    	3.5         	                	;				
 J-488           	723.9537    	0.8         	                	;				
 J-489           	781.1053    	0.8         	                	;				
 J-49            	725.4071    	0.6         	                	;				
 J-490           	740.7384    	0.9         	                	;				
 J-491           	736.0383    	0.9         	                	;				
 J-492           	674.5926    	7.7         	                	;				
 J-493           	673.3041    	0           	                	;				