[TITLE]
1987 Lansdale WADISO file converted to EPANET - WMG 2/7/93
Major upgrade to 1993 conditions - WMG 3/27/93
Modified 5/93 by Bruce Herwig.
Represents April 1993 sampling study - WMG 12/4/94
Quality added for the initial values of TOTAL CHLORINE - FA 12/19/94
Pattern corrected - FA 12/14/94
Eliminated long source pipes

[JUNCTIONS]
;ID              	Elev        	Demand      	Pattern         
 1               	432.0       	-1.         	14              	;
 2               	335.0       	0.0         	                	;
 3               	236.0       	10.0        	                	;
 4               	231.0       	10.0        	                	;
 5               	240.0       	0           	                	;
 6               	275.0       	0.0         	                	;
 7               	310.0       	0.0         	                	;
 8               	315.0       	3.0         	                	;
 9               	308.0       	3.0         	                	;
 10              	265.0       	3.0         	                	;
 11              	265.0       	3.0         	                	;
 12              	285.0       	3.0         	                	;
 13              	265.        	7.          	                	;
 14              	265.0       	3.0         	                	;
 15              	260.0       	3.0         	                	;
 16              	206.0       	3.0         	                	;
 17              	214.0       	3.0         	                	;
 18              	198.0       	9.0         	                	;
 19              	208.0       	-1.0        	10              	;
 20              	190.0       	9.0         	                	;
 21              	182.0       	1.0         	                	;
 22              	200.0       	9.0         	                	;
 23              	250.0       	9.0         	                	;
 24              	230.0       	9.0         	                	;
 25              	222.0       	9.0         	                	;
 26              	285.0       	3.0         	                	;
 27              	250.0       	0.0         	                	;
 28              	275.0       	34.0        	                	;
 29              	272.0       	5.0         	                	;
 30              	290.0       	5.0         	                	;
 31              	281.0       	28.0        	                	;
 32              	285.0       	5.0         	                	;
 33              	293.0       	11.0        	                	;
 34              	290.0       	25.0        	                	;
 35              	310.0       	5.0         	                	;
 36              	325.0       	30.0        	                	;
 37              	312.0       	3.0         	                	;
 38              	318.0       	4.0         	                	;
 39              	327.0       	9.0         	                	;
 40              	318.0       	9.0         	                	;
 41              	292.0       	29.0        	                	;
 42              	290.0       	0           	                	;
 43              	320.0       	2.0         	                	;
 44              	330.0       	2.0         	                	;
 45              	326.0       	2.0         	                	;
 46              	318.0       	-54.5       	2               	;
 47              	320.0       	2.0         	                	;
 48              	345.0       	12.0        	                	;
 49              	344.0       	5.0         	                	;
 50              	329.0       	5.0         	                	;
 51              	330.0       	5.0         	                	;
 52              	330.0       	-67.4       	2               	;
 53              	332.0       	6.0         	                	;
 54              	324.0       	6.0         	                	;
 55              	320.0       	0           	                	;
 56              	310.0       	5.0         	                	;
 57              	328.0       	33.0        	                	;
 58              	325.0       	14.0        	                	;
 59              	311.0       	0.0         	                	;
 60              	348.0       	14.0        	                	;
 61              	343.0       	28.0        	                	;
 62              	363.0       	10.0        	                	;
 63              	355.0       	7.0         	                	;
 64              	356.0       	7.0         	                	;
 65              	356.0       	15.0        	                	;
 66              	341.0       	12.0        	                	;
 67              	347.0       	9.0         	                	;
 68              	352.0       	5.0         	                	;
 69              	349.0       	5.0         	                	;
 70              	351.0       	5.0         	                	;
 71              	329.0       	2.0         	                	;
 72              	330.0       	2.0         	                	;
 73              	334.0       	29.0        	                	;
 74              	343.0       	-29.5       	2               	;
 75              	352.0       	5.0         	                	;
 76              	352.0       	5.0         	                	;
 77              	382.0       	8.0         	                	;
 85              	383.0       	4.0         	                	;
 87              	385.0       	4.0         	                	;
 88              	380.0       	4.0         	                	;
 89              	372.0       	4.0         	                	;
 143             	374.0       	6.0         	                	;
 144             	372.0       	8.0         	                	;
 145             	372.0       	8.0         	                	;
 146             	369.0       	8.0         	                	;
 147             	355.0       	8.0         	                	;
 148             	349.0       	9.0         	                	;
 150             	353.0       	8.0         	                	;
 151             	365.0       	6.0         	                	;
 152             	364.0       	6.0         	                	;
 153             	358.0       	6.0         	                	;
 154             	358.0       	19.0        	                	;
 155             	362.0       	6.0         	                	;
 156             	360.0       	6.0         	                	;
 157             	358.0       	6.0         	                	;
 158             	365.0       	8.0         	                	;
 159             	360.0       	-1.         	12              	;
 163             	354.0       	10.0        	                	;
 164             	352.0       	6.0         	                	;
 165             	358.0       	15.0        	                	;
 166             	350.0       	4.0         	                	;
 167             	346.0       	4.0         	                	;
 168             	344.0       	4.0         	                	;
 169             	338.0       	4.0         	                	;
 170             	334.0       	4.0         	                	;
 171             	336.0       	5.0         	                	;
 172             	332.0       	5.0         	                	;
 173             	318.0       	23.0        	                	;
 174             	328.0       	5.0         	                	;
 175             	336.0       	5.0         	                	;
 176             	344.0       	92.0        	                	;
 177             	341.0       	5.0         	                	;
 178             	336.0       	5.0         	                	;
 179             	330.0       	4.0         	                	;
 180             	334.0       	4.0         	                	;
 181             	325.0       	4.0         	                	;
 182             	336.0       	7.0         	                	;
 183             	336.0       	4.0         	                	;
 184             	333.0       	4.0         	                	;
 185             	336.0       	7.0         	                	;
 187             	350.0       	10.0        	                	;
 188             	347.0       	7.0         	                	;
 189             	352.0       	28.0        	                	;
 190             	341.0       	10.0        	                	;
 191             	342.0       	5.0         	                	;
 192             	344.0       	5.0         	                	;
 193             	338.0       	4.0         	                	;
 194             	336.0       	4.0         	                	;
 195             	366.0       	7.0         	                	;
 196             	350.0       	23.0        	                	;
 197             	354.0       	60.0        	                	;
 198             	344.0       	28.0        	                	;
 199             	316.0       	5.0         	                	;
 200             	321.0       	3.0         	                	;
 201             	312.0       	3.0         	                	;
 202             	298.0       	3.0         	                	;
 203             	290.0       	3.0         	                	;
 204             	280.0       	3.0         	                	;
 205             	284.0       	-1.0        	11              	;
 206             	276.0       	3.0         	                	;
 207             	304.0       	-62.8       	2               	;
 208             	300.0       	1.0         	                	;
 209             	294.0       	1.0         	                	;
 210             	288.0       	1.0         	                	;
 211             	284.0       	1.0         	                	;
 212             	302.0       	1.0         	                	;
 213             	300.0       	9.0         	                	;
 214             	322.0       	7.0         	                	;
 215             	332.0       	-1.         	15              	;
 216             	357.0       	30.         	                	;
 217             	288.0       	14.0        	                	;
 218             	292.0       	9.0         	                	;
 219             	278.0       	9.0         	                	;
 220             	280.0       	3.0         	                	;
 221             	294.0       	3.0         	                	;
 222             	310.0       	3.0         	                	;
 223             	312.0       	3.0         	                	;
 224             	306.0       	4.0         	                	;
 225             	306.0       	4.0         	                	;
 226             	320.0       	15.0        	                	;
 227             	328.0       	5.0         	                	;
 228             	316.0       	5.0         	                	;
 229             	308.0       	5.0         	                	;
 230             	308.0       	21.0        	                	;
 231             	312.0       	4.0         	                	;
 232             	306.0       	5.0         	                	;
 233             	306.0       	-50.0       	2               	;
 234             	322.0       	5.0         	                	;
 235             	324.0       	5.0         	                	;
 236             	326.0       	5.0         	                	;
 237             	322.0       	0.0         	                	;
 238             	340.0       	5.0         	                	;
 239             	341.0       	1.0         	                	;
 240             	300.0       	225.0       	                	;
 241             	333.0       	5.0         	                	;
 242             	320.0       	0.0         	                	;
 243             	312.0       	4.0         	                	;
 244             	288.0       	2.0         	                	;
 245             	270.0       	2.0         	                	;
 246             	280.0       	-170.0      	4               	;
 247             	282.0       	2.0         	                	;
 248             	302.0       	2.0         	                	;
 249             	328.0       	4.0         	                	;
 250             	282.0       	4.0         	                	;
 251             	324.0       	4.0         	                	;
 252             	278.0       	4.0         	                	;
 253             	268.0       	4.0         	                	;
 254             	280.0       	25.0        	                	;
 255             	260.0       	4.0         	                	;
 256             	319.0       	5.0         	                	;
 257             	321.0       	24.0        	                	;
 258             	342.0       	25.0        	                	;
 259             	256.0       	5.0         	                	;
 260             	240.0       	5.0         	                	;
 261             	210.0       	5.0         	                	;
 262             	226.0       	2.0         	                	;
 263             	202.0       	2.0         	                	;
 264             	244.0       	10.0        	                	;
 265             	266.0       	2.0         	                	;
 266             	242.0       	2.0         	                	;
 267             	220.0       	-279.5      	2               	;
 268             	240.0       	2.0         	                	;
 269             	198.0       	7.0         	                	;
 270             	198.0       	2.0         	                	;
 271             	280.0       	17.0        	                	;
 272             	320.0       	0.0         	                	;
 273             	310.0       	0.0         	                	;
 274             	324.0       	7.0         	                	;
 275             	310.0       	7.0         	                	;
 276             	250.0       	2.0         	                	;
 277             	280.0       	12.0        	                	;
 278             	342.0       	6.0         	                	;
 279             	260.0       	2.0         	                	;
 280             	276.0       	13.0        	                	;
 281             	270.0       	32.0        	                	;
 282             	260.0       	2.0         	                	;
 283             	256.0       	2.0         	                	;
 284             	244.0       	30.0        	                	;
 285             	216.0       	7.0         	                	;
 286             	240.0       	7.0         	                	;
 287             	240.0       	2.0         	                	;
 288             	240.0       	-155.0      	6               	;
 289             	276.0       	2.0         	                	;
 290             	230.0       	2.0         	                	;
 291             	230.0       	7.0         	                	;
 292             	204.0       	-192.2      	3               	;
 293             	340.0       	2.0         	                	;
 294             	322.0       	2.0         	                	;
 295             	320.0       	2.0         	                	;
 296             	318.0       	2.0         	                	;
 297             	298.0       	-208.3      	5               	;
 298             	290.0       	7.0         	                	;
 299             	320.0       	7.0         	                	;
 300             	336.0       	7.0         	                	;
 301             	304.0       	17.0        	                	;
 302             	322.0       	2.0         	                	;
 303             	322.0       	2.0         	                	;
 304             	300.0       	2.0         	                	;
 305             	301.0       	9.0         	                	;
 306             	336.0       	2.0         	                	;
 307             	328.0       	2.0         	                	;
 308             	310.0       	2.0         	                	;
 309             	301.0       	1.0         	                	;
 310             	348.0       	1.0         	                	;
 311             	284.0       	1.0         	                	;
 312             	280.0       	1.0         	                	;
 313             	280.0       	-271.2      	8               	;
 314             	370.0       	1.0         	                	;
 315             	356.0       	1.0         	                	;
 316             	382.0       	1.0         	                	;
 317             	316.0       	1.0         	                	;
 318             	300.0       	1.0         	                	;
 319             	280.0       	-116.7      	6               	;
 320             	322.0       	1.0         	                	;
 321             	328.0       	1.0         	                	;
 322             	318.0       	1.0         	                	;
 323             	284.0       	100.0       	                	;
 324             	260.0       	100.0       	                	;
 325             	264.0       	1.0         	                	;
 326             	342.0       	1.0         	                	;
 327             	344.0       	1.0         	                	;
 328             	362.0       	1.0         	                	;
 329             	362.0       	1.0         	                	;
 330             	354.0       	1.0         	                	;
 331             	344.0       	1.0         	                	;
 332             	342.0       	5.0         	                	;
 334             	372.0       	8.0         	                	;
 335             	378.0       	2.0         	                	;
 336             	384.0       	25.0        	                	;
 337             	428.0       	2.0         	                	;
 428             	282.0       	7.0         	                	;
 429             	282.0       	-50.0       	2               	;
 430             	337.0       	4.0         	                	;
 431             	340.0       	5.0         	                	;
 432             	341.0       	4.0         	                	;
 433             	232.0       	5.0         	                	;
 434             	225.0       	8.0         	                	;
 435             	260.0       	75.0        	                	;
 436             	270.0       	8.0         	                	;
 437             	275.0       	-83.3       	2               	;
 438             	276.0       	0.          	                	;
 439             	343.0       	22.0        	                	;
 440             	330.0       	8.0         	                	;
 441             	282.0       	2.0         	                	;
 444             	340.0       	4.0         	                	;
 445             	370.0       	27.0        	                	;
 446             	264.0       	39.0        	                	;
 447             	275.0       	2.0         	                	;
 448             	270.0       	7.0         	                	;
 449             	342.0       	25.0        	                	;
 450             	341.0       	1.0         	                	;
 453             	335.0       	13.0        	                	;
 454             	290.0       	27.0        	                	;
 455             	356.0       	5.0         	                	;
 457             	299.        	7.          	                	;
 458             	290.        	7.          	                	;
 459             	289.        	7.          	                	;
 460             	328.        	0.          	                	;
 461             	270.        	2.          	                	;
 462             	263.        	2.          	                	;
 463             	265.        	2.          	                	;
 500             	340.        	16.         	                	;
 501             	300.        	5.          	                	;
 502             	330.        	5.          	                	;
 504             	330.        	5.          	                	;
 505             	310.        	5.          	                	;
 506             	300.        	5.          	                	;
 507             	330.        	5.          	                	;
 508             	330.        	5.          	                	;
 509             	320.        	5.          	                	;
 510             	320.        	5.          	                	;
 591             	444.        	1.0         	13              	;
 615             	350.        	10.         	                	;
 616             	280.        	10.         	                	;
 617             	250.        	4.          	                	;
 618             	275.        	4.          	                	;
 619             	280.        	4.          	                	;
 620             	240.        	4.          	                	;
 621             	250.        	4.          	                	;
 622             	230.        	4.          	                	;
 623             	240.        	4.          	                	;
 624             	250.        	-213.9      	7               	;
 625             	200.        	230.        	                	;
 626             	260.        	4.          	                	;
 627             	250.        	4.          	                	;
 628             	260.        	4.          	                	;
 629             	260.        	4.          	                	;
 630             	320.        	150.        	                	;
 634             	200.        	0           	                	;
 635             	428.        	-86.3       	9               	;
 636             	327.        	0           	                	;
 637             	309.        	0           	                	;
 638             	315.        	0           	                	;
 639             	277.        	0           	                	;
 640             	350.        	0.          	                	;
 641             	315.        	0.          	                	;
 700             	336.        	0           	                	;

[RESERVOIRS]
;ID              	Head        	Pattern         

[TANKS]
;ID              	Elevation   	InitLevel   	MinLevel    	MaxLevel    	Diameter    	MinVol      	VolCurve
 186             	444.        	29.0        	0.          	42.         	100.        	0           	                	;2 mg elevated tank
 338             	444.        	32.6        	0.          	42.         	66.         	0           	                	;lawn ave tank

[PIPES]
;ID              	Node1           	Node2           	Length      	Diameter    	Roughness   	MinorLoss   	Status
 1               	1               	2               	4005        	16          	120         	0           	Open  	;
 2               	2               	3               	4805.2      	16          	120         	0           	Open  	;
 3               	5               	4               	848.5       	12          	120         	0           	Open  	;
 4               	4               	3               	1900        	12          	120         	0           	Open  	;
 5               	3               	6               	1603.1      	16          	120         	0           	Open  	;
 6               	6               	7               	2012.5      	16          	120         	0           	Open  	;
 7               	7               	8               	3000        	16          	120         	0           	Open  	;
 8               	8               	9               	800         	16          	120         	0           	Open  	;
 9               	9               	10              	2100        	12          	120         	0           	Open  	;
 10              	10              	11              	2100        	12          	120         	0           	Open  	;
 11              	9               	12              	1236.9      	12          	120         	0           	Open  	;
 12              	10              	15              	1802.8      	8           	120         	0           	Open  	;
 13              	14              	15              	538.5       	12          	120         	0           	Open  	;
 14              	15              	16              	500         	12          	120         	0           	Open  	;
 15              	11              	17              	1708.8      	12          	120         	0           	Open  	;
 16              	17              	16              	1118        	12          	120         	0           	Open  	;
 17              	16              	24              	1769.2      	12          	120         	0           	Open  	;
 18              	24              	25              	640.3       	12          	120         	0           	Open  	;
 19              	25              	26              	1746.4      	8           	100         	0           	Open  	;
 20              	26              	27              	1612.5      	8           	120         	0           	Open  	;
 21              	27              	28              	1100        	12          	120         	0           	Open  	;
 22              	27              	29              	900         	12          	120         	0           	Open  	;
 23              	26              	30              	1726.3      	8           	100         	0           	Open  	;
 24              	30              	29              	1700        	16          	120         	0           	Open  	;
 25              	31              	30              	2700        	16          	120         	0           	Open  	;
 26              	438             	31              	1500        	12          	120         	0           	Open  	;
 27              	31              	32              	2900        	16          	120         	0           	Open  	;
 28              	32              	33              	1702.9      	12          	120         	0           	Open  	;
 29              	33              	34              	707.1       	6           	120         	0           	Open  	;
 30              	33              	256             	2701.9      	12          	120         	0           	Open  	;
 31              	17              	18              	984.9       	12          	120         	0           	Open  	;
 32              	19              	18              	509.9       	6           	120         	0           	Open  	;
 33              	18              	20              	2109.5      	12          	120         	0           	Open  	;
 34              	20              	21              	1000        	8           	120         	0           	Open  	;
 35              	20              	22              	1802.8      	12          	120         	0           	Open  	;
 36              	17              	23              	1300        	8           	120         	0           	Open  	;
 37              	23              	22              	2901.7      	8           	120         	0           	Open  	;
 38              	22              	433             	1500        	12          	120         	0           	Open  	;
 39              	618             	436             	1800        	12          	120         	0           	Open  	;
 40              	436             	435             	800         	12          	120         	0           	Open  	;
 41              	435             	434             	800         	12          	120         	0           	Open  	;
 42              	434             	433             	2282.5      	12          	120         	0           	Open  	;
 43              	433             	32              	3000        	12          	120         	0           	Open  	;
 44              	29              	38              	2800        	12          	100         	0           	Open  	;
 45              	30              	35              	1118        	10          	100         	0           	Open  	;
 46              	35              	36              	1612.5      	8           	100         	0           	Open  	;
 47              	36              	37              	700         	8           	120         	0           	Open  	;
 48              	37              	38              	1403.6      	8           	120         	0           	Open  	;
 49              	38              	39              	1800        	12          	100         	0           	Open  	;
 50              	37              	453             	948.7       	8           	120         	0           	Open  	;
 51              	39              	40              	2100        	8           	120         	0           	Open  	;
 52              	39              	48              	900         	12          	100         	0           	Open  	;
 53              	48              	49              	500         	12          	100         	0           	Open  	;
 54              	48              	47              	1664.3      	8           	120         	0           	Open  	;
 55              	41              	40              	900         	8           	120         	0           	Open  	;
 56              	42              	41              	316.2       	6           	120         	0           	Open  	;
 57              	41              	43              	1118        	8           	120         	0           	Open  	;
 58              	47              	43              	538.5       	8           	120         	0           	Open  	;
 59              	43              	44              	860.2       	6           	120         	0           	Open  	;
 60              	45              	43              	412.3       	8           	120         	0           	Open  	;
 61              	46              	45              	300         	6           	120         	0           	Open  	;
 62              	45              	73              	1044        	8           	120         	0           	Open  	;
 63              	47              	71              	1334.2      	6           	120         	0           	Open  	;
 64              	74              	73              	360.6       	8           	120         	0           	Open  	;
 65              	73              	72              	400         	8           	120         	0           	Open  	;