; Filename: Networks/PA1.inp
; WNTR: 0.4.2
; Created: 2023-08-30 18:34:49
[TITLE]
1987 Lansdale WADISO file converted to EPANET - WMG 2/7/93
Major upgrade to 1993 conditions - WMG 3/27/93
Modified 5/93 by Bruce Herwig.
Represents April 1993 sampling study - WMG 12/4/94
Quality added for the initial values of TOTAL CHLORINE - FA 12/19/94
Pattern corrected - FA 12/14/94
Eliminated long source pipes

[JUNCTIONS]
;ID                      Elevation       Demand Pattern                 
 1                                432              -1 14                         ;
 2                                335    12.183080385 1                          ;
 9                                308     19.03177858 1                          ;
 10                               265    4.3362151106 1                          ;
 15                               260    10.785141035 1                          ;
 16                               206    5.3555942014 1                          ;
 17                               214    10.728579008 1                          ;
 18                               198    13.535910168 1                          ;
 19                               208              -1 10                         ;
 22                               200    17.399295713 1                          ;
 25                               222    27.971289894 1                          ;
 26                               285               3 1                          ;
 27                               250    27.673115904 1                          ;
 29                               272               5 1                          ;
 30                               290    8.9859139306 1                          ;
 31                               281              28 1                          ;
 32                               285    24.976487089 1                          ;
 36                               325    31.014086069 1                          ;
 37                               312    8.5120844617 1                          ;
 38                               318               4 1                          ;
 39                               327               9 1                          ;
 40                               318    16.487915538 1                          ;
 41                               292              29 1                          ;
 43                               320      2.54751126 1                          ;
 45                               326               2 1                          ;
 46                               318           -54.5 2                          ;
 47                               320               2 1                          ;
 48                               345              12 1                          ;
 49                               344               5 1                          ;
 50                               329    10.935151167 1                          ;
 51                               330               5 1                          ;
 52                               330           -67.4 2                          ;
 57                               328    109.90767886 1                          ;
 64                               356    38.157169968 1                          ;
 65                               356    15.861249547 1                          ;
 66                               341     18.61939134 1                          ;
 67                               347    15.462184836 1                          ;
 69                               349     5.918423824 1                          ;
 70                               351    14.138750453 1                          ;
 71                               329    3.1010564162 1                          ;
 73                               334    29.898943584 1                          ;
 74                               343           -29.5 2                          ;
 146                              369    37.594257711 1                          ;
 152                              364    94.871405635 1                          ;
 154                              358    25.116160671 1                          ;
 156                              360    10.876383594 1                          ;
 158                              365    12.647622015 1                          ;
 159                              360              -1 12                         ;
 163                              354    14.991436482 1                          ;
 165                              358    16.008563518 1                          ;
 166                              350    6.6179873549 1                          ;
 168                              344    19.799672717 1                          ;
 171                              336      19.7056513 1                          ;
 172                              332               5 1                          ;
 173                              318              23 1                          ;
 174                              328    54.845103858 1                          ;
 175                              336    12.467560162 1                          ;
 176                              344    192.15489614 1                          ;
 180                              334    10.532439838 1                          ;
 181                              325    9.2747495757 1                          ;
 182                              336     17.66457525 1                          ;
 185                              336    16.821766987 1                          ;
 188                              347    12.484353479 1                          ;
 189                              352              28 1                          ;
 190                              341              10 1                          ;
 192                              344    159.85571341 1                          ;
 200                              321      57.9370321 1                          ;
 201                              312      5.70663037 1                          ;
 202                              298     3.991326212 1                          ;
 204                              280     8.008673788 1                          ;
 205                              284              -1 11                         ;
 207                              304           -62.8 2                          ;
 214                              322     18.29336963 1                          ;
 215                              332              -1 15                         ;
 218                              292    21.097877108 1                          ;
 219                              278    10.918040854 1                          ;
 221                              294    6.1182521249 1                          ;
 224                              306    19.486172423 1                          ;
 227                              328     15.05927734 1                          ;
 228                              316               5 1                          ;
 229                              308    27.454550237 1                          ;
 232                              306               5 1                          ;
 233                              306             -50 2                          ;
 234                              322               5 1                          ;
 235                              324               5 1                          ;
 243                              312    97.722462016 1                          ;
 245                              270    2.7648974745 1                          ;
 246                              280            -170 4                          ;
 247                              282               2 1                          ;
 248                              302    4.1275558605 1                          ;
 250                              282    20.193172795 1                          ;
 251                              324    5.8908958225 1                          ;
 255                              260    18.679271345 1                          ;
 256                              319    71.067318236 1                          ;
 261                              210    50.050002003 1                          ;
 266                              242    11.526301156 1                          ;
 267                              220          -279.5 2                          ;
 268                              240               2 1                          ;
 270                              198    6.3798915156 1                          ;
 271                              280    18.547578475 1                          ;
 275                              310    31.627338044 1                          ;
 276                              250    83.394648462 1                          ;
 280                              276    23.529884143 1                          ;
 282                              260    57.555868381 1                          ;
 286                              240    27.822870848 1                          ;
 287                              240    5.5263777329 1                          ;
 288                              240            -155 6                          ;
 291                              230    7.4736222671 1                          ;
 292                              204          -192.2 3                          ;
 293                              340    6.5938216295 1                          ;
 294                              322               2 1                          ;
 295                              320    7.7347530834 1                          ;
 296                              318               2 1                          ;
 297                              298          -208.3 5                          ;
 298                              290    16.746223861 1                          ;
 302                              322    14.850865047 1                          ;
 304                              300    16.309401982 1                          ;
 311                              284    2.2867460423 1                          ;
 312                              280    3.2153303623 1                          ;
 313                              280          -271.2 8                          ;
 318                              300    2.7846696377 1                          ;
 319                              280          -116.7 6                          ;
 334                              372    105.56990298 1                          ;
 336                              384    25.534898066 1                          ;
 337                              428               2 1                          ;
 428                              282               7 1                          ;
 429                              282             -50 2                          ;
 430                              337    16.601939053 1                          ;
 433                              232    35.669813212 1                          ;
 437                              275           -83.3 2                          ;
 441                              282    146.89519896 1                          ;
 455                              356    5.7953355567 1                          ;
 457                              299               7 1                          ;
 458                              290               7 1                          ;
 459                              289               7 1                          ;
 500                              340              46 1                          ;
 501                              300               5 1                          ;
 502                              330    9.9208452941 1                          ;
 505                              310               5 1                          ;
 506                              300               5 1                          ;
 507                              330               5 1                          ;
 508                              330               5 1                          ;
 509                              320               5 1                          ;
 510                              320    6.9021228922 1                          ;
 591                              444               1 13                         ;
 617                              250               4 1                          ;
 618                              275    64.330186788 1                          ;
 619                              280               4 1                          ;
 620                              240             262 1                          ;
 624                              250          -213.9 7                          ;
 635                              428           -86.3 9                          ;
 636                              327      1.45248874 1                          ;
 638                              315               0 1                          ;
 639                              277               0 1                          ;
 641                              315               0 1                          ;
 700                              336               0 1                          ;

[RESERVOIRS]
;ID                                   Head                  Pattern

[TANKS]
;ID                              Elevation           Init Level            Min Level            Max Level             Diameter           Min Volume Volume Curve         Overflow            
 186                              444              29               0              42             100               0                                             ;
 338                              444            32.6               0              42              66               0                                             ;

[PIPES]
;ID                   Node1                Node2                              Length             Diameter            Roughness           Minor Loss               Status
 1                    1                    2                               4005              16             120               0                 Open   ;
 9                    9                    10                              2100              12             120               0                 Open   ;
 12                   10                   15                            1802.8               8             120               0                 Open   ;
 14                   15                   16                               500              12             120               0                 Open   ;
 16                   17                   16                              1118              12             120               0                 Open   ;
 19                   25                   26                            1746.4               8             100               0                 Open   ;
 20                   26                   27                            1612.5               8             120               0                 Open   ;
 22                   27                   29                               900              12             120               0                 Open   ;
 23                   26                   30                            1726.3               8             100               0                 Open   ;
 24                   30                   29                              1700              16             120               0                 Open   ;
 25                   31                   30                              2700              16             120               0                 Open   ;
 27                   31                   32                              2900              16             120               0                 Open   ;
 31                   17                   18                             984.9              12             120               0                 Open   ;
 32                   19                   18                             509.9               6             120               0                 Open   ;
 38                   22                   433                             1500              12             120               0                 Open   ;
 43                   433                  32                              3000              12             120               0                 Open   ;
 44                   29                   38                              2800              12             100               0                 Open   ;
 47                   36                   37                               700               8             120               0                 Open   ;
 48                   37                   38                            1403.6               8             120               0                 Open   ;
 49                   38                   39                              1800              12             100               0                 Open   ;
 51                   39                   40                              2100               8             120               0                 Open   ;
 52                   39                   48                               900              12             100               0                 Open   ;
 53                   48                   49                               500              12             100               0                 Open   ;
 54                   48                   47                            1664.3               8             120               0                 Open   ;
 55                   41                   40                               900               8             120               0                 Open   ;
 57                   41                   43                              1118               8             120               0                 Open   ;
 58                   47                   43                             538.5               8             120               0                 Open   ;
 60                   45                   43                             412.3               8             120               0                 Open   ;
 61                   46                   45                               300               6             120               0                 Open   ;
 62                   45                   73                              1044               8             120               0                 Open   ;
 63                   47                   71                            1334.2               6             120               0                 Open   ;
 64                   74                   73                             360.6               8             120               0                 Open   ;
 67                   71                   70                              1100               6             100               0                 Open   ;
 68                   70                   69                               400               8             100               0                 Open   ;
 69                   49                   69                              1300               8             100               0                 Open   ;
 72                   51                   67                               600               6             100               0                 Open   ;
 73                   52                   51                               200               6             100               0                 Open   ;
 74                   51                   50                               300               6             100               0                 Open   ;
 75                   49                   50                               900               8             100               0                 Open   ;
 95                   64                   65                               300               4             100               0                 Open   ;
 96                   66                   65                               800               4             100               0                 Open   ;
 97                   57                   66                              1000               4             100               0                 Open   ;
 103                  70                   189                             1100               8             100               0                 Open   ;
 104                  189                  182                            316.2               8             100               0                 Open   ;
 108                  186                  700                              300              12             120               0                 Open   ;
 111                  64                   188                             1200              12             120               0                 Open   ;
 112                  188                  163                              350              12             120               0                 Open   ;
 113                  159                  163                              800              12             120               0                 Open   ;
 116                  159                  158                            854.4               8             100               0                 Open   ;
 125                  146                  156                             1500               4             100               0                 Open   ;
 131                  165                  154                              800              16             120               0                 Open   ;
 132                  165                  166                              700               4             100               0                 Open   ;
 135                  154                  168                              700               8             100               0                 Open   ;
 144                  171                  172                              400               8             100               0                 Open   ;
 145                  172                  235                           1902.6               8             100               0                 Open   ;
 146                  227                  235                              400               8             100               0                 Open   ;
 147                  228                  234                             1253               6             100               0                 Open   ;
 148                  234                  235                              200               6             100               0                 Open   ;
 149                  232                  234                           1303.8               6             100               0                 Open   ;
 150                  233                  232                            316.2               6             100               0                 Open   ;
 151                  232                  229                            509.9               6             100               0                 Open   ;
 152                  173                  172                             1300               8             100               0                 Open   ;
 153                  174                  173                              900               8             100               0                 Open   ;
 154                  175                  174                              300               6             100               0                 Open   ;
 159                  181                  180                              900               6             100               0                 Open   ;
 160                  190                  180                              900               6             100               0                 Open   ;
 161                  189                  190                              800               8             100               0                 Open   ;
 165                  182                  181                              600               8             100               0                 Open   ;
 166                  181                  173                           2039.6               8             100               0                 Open   ;
 172                  229                  228                              300              12             120               0                 Open   ;
 173                  228                  227                           1315.3              12             120               0                 Open   ;
 178                  224                  221                              800              12             120               0                 Open   ;
 183                  201                  200                           2549.5              12             120               0                 Open   ;
 184                  202                  201                            948.7               8             120               0                 Open   ;
 185                  207                  202                              728               6             120               0                 Open   ;
 188                  205                  204                              300              24             120               0                 Open   ;
 199                  218                  219                              500              12             120               0                 Open   ;
 200                  214                  215                           3420.5              16             120               0                 Open   ;
 201                  500                  215                             1700              24             120               0                 Open   ;
 208                  176                  175                             1100               6             100               0                 Open   ;
 209                  192                  176                             2502               6             100               0                 Open   ;
 210                  190                  455                              700               8             100               0                 Open   ;
 222                  246                  245                              300               6             120               0                 Open   ;
 223                  245                  247                           1019.8              16             120               0                 Open   ;
 224                  247                  248                           1726.3               8             100               0                 Open   ;
 227                  250                  251                           1811.1               8             120               0                 Open   ;
 232                  256                  255                           2807.1               8             120               0                 Open   ;
 244                  267                  266                            282.8               6             120               0                 Open   ;
 245                  266                  268                              500              16             100               0                 Open   ;
 246                  268                  441                           1931.3              16             100               0                 Open   ;
 247                  247                  441                           1627.9              16             120               0                 Open   ;
 250                  617                  270                             3200              12             120               0                 Open   ;
 257                  428                  298                           1431.8               8             120               0                 Open   ;
 258                  429                  428                              200               8             120               0                 Open   ;
 259                  428                  280                           2418.7               8             120               0                 Open   ;
 264                  276                  271                             5016              12             120               0                 Open   ;
 273                  287                  286                            223.6               8             120               0                 Open   ;
 274                  288                  287                              300               6             120               0                 Open   ;
 278                  292                  291                            316.2               6             120               0                 Open   ;
 279                  291                  286                           2213.6               8             120               0                 Open   ;
 281                  294                  293                              800               8             120               0                 Open   ;
 282                  296                  298                             1118               8             100               0                 Open   ;
 283                  297                  296                            412.3               8             120               0                 Open   ;