; Filename: Networks/PA1.inp
; WNTR: 0.4.2
; Created: 2023-08-30 18:33:54
[TITLE]
1987 Lansdale WADISO file converted to EPANET - WMG 2/7/93
Major upgrade to 1993 conditions - WMG 3/27/93
Modified 5/93 by Bruce Herwig.
Represents April 1993 sampling study - WMG 12/4/94
Quality added for the initial values of TOTAL CHLORINE - FA 12/19/94
Pattern corrected - FA 12/14/94
Eliminated long source pipes

[JUNCTIONS]
;ID                      Elevation       Demand Pattern                 
 1                                432              -1 14                         ;
 2                                335    20.779409108 1                          ;
 18                               198     76.35921392 1                          ;
 19                               208              -1 10                         ;
 29                               272    194.78198694 1                          ;
 45                               326    93.043668381 1                          ;
 46                               318           -54.5 2                          ;
 51                               330    120.22143146 1                          ;
 52                               330           -67.4 2                          ;
 73                               334    105.21016008 1                          ;
 74                               343           -29.5 2                          ;
 158                              365    39.699189333 1                          ;
 159                              360              -1 12                         ;
 163                              354    383.58963536 1                          ;
 190                              341    172.35084477 1                          ;
 202                              298    19.223636649 1                          ;
 204                              280     8.008673788 1                          ;
 205                              284              -1 11                         ;
 207                              304           -62.8 2                          ;
 214                              322     56.54364096 1                          ;
 215                              332              -1 15                         ;
 221                              294    87.248233895 1                          ;
 232                              306    58.427599693 1                          ;
 233                              306             -50 2                          ;
 245                              270    352.61846359 1                          ;
 246                              280            -170 4                          ;
 266                              242    172.20084761 1                          ;
 267                              220          -279.5 2                          ;
 287                              240    57.225136828 1                          ;
 288                              240            -155 6                          ;
 291                              230    18.041862514 1                          ;
 292                              204          -192.2 3                          ;
 293                              340    53.258130576 1                          ;
 296                              318    20.640965019 1                          ;
 297                              298          -208.3 5                          ;
 311                              284    10.668851971 1                          ;
 312                              280    3.2153303623 1                          ;
 313                              280          -271.2 8                          ;
 318                              300    2.7846696377 1                          ;
 319                              280          -116.7 6                          ;
 336                              384    130.30456227 1                          ;
 337                              428    13.280091539 1                          ;
 428                              282    81.548514764 1                          ;
 429                              282             -50 2                          ;
 433                              232    73.296602854 1                          ;
 437                              275           -83.3 2                          ;
 500                              340     48.91188132 1                          ;
 508                              330    16.502620813 1                          ;
 591                              444               1 13                         ;
 618                              275    133.63392398 1                          ;
 620                              240    304.09360398 1                          ;
 624                              250          -213.9 7                          ;
 635                              428           -86.3 9                          ;
 641                              315    28.165790732 1                          ;
 700                              336    93.120825287 1                          ;

[RESERVOIRS]
;ID                                   Head                  Pattern

[TANKS]
;ID                              Elevation           Init Level            Min Level            Max Level             Diameter           Min Volume Volume Curve         Overflow            
 186                              444              29               0              42             100               0                                             ;
 338                              444            32.6               0              42              66               0                                             ;

[PIPES]
;ID                   Node1                Node2                              Length             Diameter            Roughness           Minor Loss               Status
 1                    1                    2                               4005              16             120               0                 Open   ;
 32                   19                   18                             509.9               6             120               0                 Open   ;
 61                   46                   45                               300               6             120               0                 Open   ;
 62                   45                   73                              1044    9.1466023848             100               0                 Open   ;
 64                   74                   73                             360.6               8             120               0                 Open   ;
 73                   52                   51                               200               6             100               0                 Open   ;
 108                  186                  700                              300              12             120               0                 Open   ;
 113                  159                  163                              800              12             120               0                 Open   ;
 116                  159                  158                            854.4               8             100               0                 Open   ;
 150                  233                  232                            316.2               6             100               0                 Open   ;
 185                  207                  202                              728               6             120               0                 Open   ;
 188                  205                  204                              300              24             120               0                 Open   ;
 200                  214                  215                           3420.5              16             120               0                 Open   ;
 201                  500                  215                             1700              24             120               0                 Open   ;
 222                  246                  245                              300               6             120               0                 Open   ;
 244                  267                  266                            282.8               6             120               0                 Open   ;
 258                  429                  428                              200               8             120               0                 Open   ;
 274                  288                  287                              300               6             120               0                 Open   ;
 278                  292                  291                            316.2               6             120               0                 Open   ;
 283                  297                  296                            412.3               8             120               0                 Open   ;
 300                  312                  311                            640.3              16             120               0                 Open   ;
 301                  313                  312                            223.6               6             120               0                 Open   ;
 307                  319                  318                              200               8             120               0                 Open   ;
 326                  337                  591                              781              16             120               0                 Open   ;
 597                  338                  591                               50              16             120               0                 Open   ;
 613                  508                  215                             1200               8             120               0                 Open   ;
 615                  337                  635                              300              12             120               0                 Open   ;
 717                  618                  437                              300              12             120               0                 Open   ;
 719                  620                  624                              800              12             120               0                 Open   ;
 new-pipe-51          202                  204                     1313.1822055    9.7510053529             100               0                 Open   ;
 new-pipe-87          291                  287                     1313.1822055    9.4101718452             100               0                 Open   ;
 new-pipe-100         318                  312                     1313.1822055    6.0533840056             100               0                 Open   ;
 new-pipe-110         618                  433                     1313.1822055     9.809230036             100               0                 Open   ;
 new-pipe-134         433                  18                      1313.1822055    10.307092093             100               0                 Open   ;
 new-pipe-191         202                  214                     1313.1822055    7.3657871136             100               0                 Open   ;
 new-pipe-228         296                  293                     1313.1822055    7.9167794072             100               0                 Open   ;
 new-pipe-230         293                  311                     1313.1822055    7.5361057366             100               0                 Open   ;
 new-pipe-231         311                  296                     1313.1822055    4.7485203303             100               0                 Open   ;
 new-pipe-232         337                  336                     1313.1822055    13.903425279             100               0                 Open   ;
 new-pipe-237         190                  73                      1313.1822055    5.8233526444             100               0                 Open   ;
 new-pipe-245         508                  500                     1313.1822055    5.9270860905             100               0                 Open   ;
 new-pipe-255         18                   2                       1313.1822055    9.7679400736             100               0                 Open   ;
 new-pipe-257         2                    433                     1313.1822055    1.8502280974             100               0                 Open   ;
 new-pipe-285         232                  221                     1313.1822055    9.2561437296             100               0                 Open   ;
 new-pipe-294         428                  296                     1313.1822055    7.6946863467             100               0                 Open   ;
 new-pipe-300         508                  221                     1313.1822055    4.0613597324             100               0                 Open   ;
 new-pipe-301         214                  508                     1313.1822055    6.1327847008             100               0                 Open   ;
 new-pipe-302         214                  221                     1313.1822055    8.8275054745             100               0                 Open   ;
 new-pipe-306         618                  620                     1313.1822055      8.86225929             100               0                 Open   ;
 new-pipe-309         2                    29                      1313.1822055    3.4191905296             100               0                 Open   ;
 new-pipe-312         29                   18                      1313.1822055    9.2145727341             100               0                 Open   ;
 new-pipe-313         29                   433                     1313.1822055    8.3730317367             100               0                 Open   ;
 new-pipe-328         158                  163                     1313.1822055    7.3665866039             100               0                 Open   ;
 new-pipe-335         245                  266                     1313.1822055    12.245655217             100               0                 Open   ;
 new-pipe-347         641                  508                     1313.1822055    6.8911107467             100               0                 Open   ;
 new-pipe-348         641                  500                     1313.1822055    21.145658972             100               0                 Open   ;
 new-pipe-349         641                  221                     1313.1822055    9.4470241994             100               0                 Open   ;
 new-pipe-350         641                  214                     1313.1822055    8.3104653149             100               0                 Open   ;
 new-pipe-351         500                  221                     1313.1822055    2.9991790097             100               0                 Open   ;
 new-pipe-352         500                  214                     1313.1822055    2.6914042177             100               0                 Open   ;
 new-pipe-359         190                  221                     1313.1822055     2.487191567             100               0                 Open   ;
 new-pipe-360         190                  232                     1313.1822055    2.6199613148             100               0                 Open   ;
 new-pipe-368         700                  190                     1313.1822055    7.2017144571             100               0                 Open   ;
 new-pipe-370         293                  428                     1313.1822055    4.2002042263             100               0                 Open   ;
 new-pipe-371         293                  287                     1313.1822055    4.7760003265             100               0                 Open   ;
 new-pipe-372         293                  291                     1313.1822055    2.7541642056             100               0                 Open   ;
 new-pipe-374         428                  287                     1313.1822055    5.1074306293             100               0                 Open   ;
 new-pipe-375         428                  291                     1313.1822055    2.8752519692             100               0                 Open   ;
 new-pipe-377         287                  296                     1313.1822055   0.96222118422             100               0                 Open   ;
 new-pipe-379         291                  296                     1313.1822055     0.559100734             100               0                 Open   ;
 new-pipe-380         245                  337                     1313.1822055     3.799918996             100               0                 Open   ;
 new-pipe-381         245                  336                     1313.1822055    8.7862437645             100               0                 Open   ;
 new-pipe-382         266                  337                     1313.1822055    2.8515207632             100               0                 Open   ;
 new-pipe-383         266                  336                     1313.1822055    6.6037587744             100               0                 Open   ;
 new-pipe-396         221                  158                     1313.1822055    2.3371942713             100               0                 Open   ;
 new-pipe-397         221                  202                     1313.1822055    3.1349159433             100               0                 Open   ;
 new-pipe-398         221                  163                     1313.1822055    7.1469689774             100               0                 Open   ;
 new-pipe-399         158                  202                     1313.1822055    2.1368607264             100               0                 Open   ;
 new-pipe-400         158                  214                     1313.1822055    2.2699220428             100               0                 Open   ;
 new-pipe-401         202                  163                     1313.1822055    6.4001515321             100               0                 Open   ;
 new-pipe-404         214                  163                     1313.1822055    6.7875960359             100               0                 Open   ;
 new-pipe-407         163                  700                     1313.1822055    8.3044138925             100               0                 Open   ;
 new-pipe-409         163                  51                      1313.1822055    5.3107790529             100               0                 Open   ;
 new-pipe-412         163                  190                     1313.1822055    6.6106241162             100               0                 Open   ;
 new-pipe-413         700                  51                      1313.1822055    4.3447261937             100               0                 Open   ;
 new-pipe-417         51                   190                     1313.1822055     2.545949788             100               0                 Open   ;
 new-pipe-421         266                  618                     1313.1822055    9.0513142368             100               0                 Open   ;
 new-pipe-422         266                  620                     1313.1822055    4.5400019241             100               0                 Open   ;
 new-pipe-423         266                  433                     1313.1822055    4.7999021422             100               0                 Open   ;
 new-pipe-434         620                  433                     1313.1822055    2.3437786204             100               0                 Open   ;
 new-pipe-442         45                   29                      1313.1822055    6.8426330415             100               0                 Open   ;
 new-pipe-450         73                   29                      1313.1822055    5.3725530546             100               0                 Open   ;
 new-pipe-452         163                  232                     1313.1822055    4.1522252806             100               0                 Open   ;
 new-pipe-453         232                  158                     1313.1822055    1.2475220697             100               0                 Open   ;
 new-pipe-454         232                  202                     1313.1822055   0.55378929578             100               0                 Open   ;
 new-pipe-455         232                  214                     1313.1822055    0.6263659994             100               0                 Open   ;
 new-pipe-457         158                  190                     1313.1822055    1.2206564809             100               0                 Open   ;
 new-pipe-460         190                  202                     1313.1822055   0.72357415957             100               0                 Open   ;
 new-pipe-461         190                  214                     1313.1822055   0.75712509975             100               0                 Open   ;
 new-pipe-472         433                  245                     1313.1822055      3.87574951             100               0                 Open   ;
 new-pipe-473         433                  337                     1313.1822055   0.24116518878             100               0                 Open   ;
 new-pipe-474         433                  336                     1313.1822055   0.56036753577             100               0                 Open   ;
 new-pipe-476         245                  618                     1313.1822055    2.9365561954             100               0                 Open   ;
 new-pipe-477         245                  620                     1313.1822055    1.8551169404             100               0                 Open   ;
 new-pipe-479         337                  618                     1313.1822055   0.23421713282             100               0                 Open   ;
 new-pipe-480         337                  620                     1313.1822055   0.16901542661             100               0                 Open   ;
 new-pipe-482         336                  618                     1313.1822055   0.54318077339             100               0                 Open   ;
 new-pipe-483         336                  620                     1313.1822055   0.39134901676             100               0                 Open   ;
 new-pipe-484         158                  700                     1313.1822055   0.56020899078             100               0                 Open   ;
 new-pipe-486         158                  51                      1313.1822055   0.40649487366             100               0                 Open   ;
 new-pipe-488         221                  700                     1313.1822055    1.9005041903             100               0                 Open   ;
 new-pipe-490         221                  51                      1313.1822055   0.81983281589             100               0                 Open   ;
 new-pipe-492         232                  700                     1313.1822055    1.9712119708             100               0                 Open   ;
 new-pipe-494         232                  51                      1313.1822055   0.86299812118             100               0                 Open   ;
 new-pipe-496         700                  202                     1313.1822055   0.56902410222             100               0                 Open   ;
 new-pipe-497         700                  214                     1313.1822055   0.60405423518             100               0                 Open   ;
 new-pipe-500         202                  51                      1313.1822055   0.24142204141             100               0                 Open   ;
 new-pipe-502         214                  51                      1313.1822055   0.25265971359             100               0                 Open   ;
 new-pipe-504         620                  428                     1313.1822055    4.3950440755             100               0                 Open   ;
 new-pipe-505         620                  296                     1313.1822055    1.7635939695             100               0                 Open   ;
 new-pipe-506         620                  293                     1313.1822055    2.8083734892             100               0                 Open   ;
 new-pipe-507         620                  287                     1313.1822055    3.1453138692             100               0                 Open   ;
 new-pipe-508         620                  291                     1313.1822055    1.7421875352             100               0                 Open   ;
 new-pipe-509         428                  618                     1313.1822055    4.8268574382             100               0                 Open   ;
 new-pipe-510         428                  266                     1313.1822055    4.2424401025             100               0                 Open   ;
 new-pipe-511         428                  433                     1313.1822055   0.97865928033             100               0                 Open   ;
 new-pipe-515         428                  245                     1313.1822055       1.2767031             100               0                 Open   ;
 new-pipe-516         428                  337                     1313.1822055  0.090744020229             100               0                 Open   ;
 new-pipe-517         428                  336                     1313.1822055   0.21102469275             100               0                 Open   ;
 new-pipe-518         296                  618                     1313.1822055    1.9622438816             100               0                 Open   ;
 new-pipe-519         296                  266                     1313.1822055    1.7040508005             100               0                 Open   ;
 new-pipe-520         296                  433                     1313.1822055   0.42490740934             100               0                 Open   ;
 new-pipe-524         296                  245                     1313.1822055   0.50932834857             100               0                 Open   ;
 new-pipe-525         296                  337                     1313.1822055  0.035498748931             100               0                 Open   ;
 new-pipe-526         296                  336                     1313.1822055  0.082607174548             100               0                 Open   ;
 new-pipe-527         618                  293                     1313.1822055    3.1209302554             100               0                 Open   ;
 new-pipe-528         618                  287                     1313.1822055     3.518948468             100               0                 Open   ;
 new-pipe-529         618                  291                     1313.1822055    1.9524587041             100               0                 Open   ;
 new-pipe-530         293                  266                     1313.1822055    2.7132977551             100               0                 Open   ;
 new-pipe-531         293                  433                     1313.1822055   0.67244397519             100               0                 Open   ;
 new-pipe-535         293                  245                     1313.1822055   0.81152255552             100               0                 Open   ;
 new-pipe-536         293                  337                     1313.1822055  0.056676413316             100               0                 Open   ;
 new-pipe-537         293                  336                     1313.1822055   0.13187894138             100               0                 Open   ;
 new-pipe-538         287                  266                     1313.1822055     3.040463458             100               0                 Open   ;
 new-pipe-539         287                  433                     1313.1822055   0.77797200766             100               0                 Open   ;
 new-pipe-543         287                  245                     1313.1822055   0.90595562451             100               0                 Open   ;
 new-pipe-544         287                  337                     1313.1822055  0.062514110245             100               0                 Open   ;
 new-pipe-545         287                  336                     1313.1822055   0.14552680285             100               0                 Open   ;
 new-pipe-546         291                  266                     1313.1822055    1.6843446681             100               0                 Open   ;
 new-pipe-547         291                  433                     1313.1822055   0.43416586435             100               0                 Open   ;
 new-pipe-551         291                  245                     1313.1822055   0.50138387738             100               0                 Open   ;
 new-pipe-552         291                  337                     1313.1822055  0.034482019497             100               0                 Open   ;
 new-pipe-553         291                  336                     1313.1822055   0.08028105129             100               0                 Open   ;
 new-pipe-554         29                   51                      1313.1822055    5.9833495786             100               0                 Open   ;
 new-pipe-555         29                   163                     1313.1822055    3.3278233572             100               0                 Open   ;
 new-pipe-556         29                   700                     1313.1822055    3.0195846141             100               0                 Open   ;
 new-pipe-557         29                   190                     1313.1822055    3.3650373503             100               0                 Open   ;