[TITLE]
CITY OF BELLINGHAM - Dakin-Yew Water Pressure Zone
Average peak daily demands on all node locations. 5-25-93 / Smyth & Reilly
Van Wyck Assoc. and Dakin Reservoir pipeline added to network model.

[JUNCTIONS]
;ID              	Elev        	Demand      	Pattern         
 1               	270.00      	-1.0        	5               	;
 1001            	270.0       	0           	                	;
 2               	490.00      	22.36       	1               	;
 3               	286.00      	98.2        	1               	; 40 % of 245.50
 4               	290.00      	22.36       	1               	;
 5               	345.00      	26.82       	1               	;
 6               	354.00      	22.36       	1               	;
 7               	340.00      	22.36       	1               	;
 8               	367.00      	8.95        	1               	;
 9               	320.00      	22.36       	1               	;
 10              	340.00      	22.36       	1               	;
 11              	338.00      	22.36       	1               	;
 12              	405.00      	8.95        	1               	;
 13              	397.00      	22.36       	1               	;
 14              	358.00      	22.36       	1               	;
 15              	280.00      	22.36       	1               	;
 16              	343.00      	22.36       	1               	;
 17              	346.00      	22.36       	1               	;
 18              	343.00      	22.36       	1               	;
 19              	356.00      	22.36       	1               	;
 20              	357.00      	22.36       	1               	;
 21              	391.00      	22.36       	1               	;
 22              	423.00      	22.36       	1               	;
 23              	424.00      	281.61      	1               	;
 24              	345.00      	42.14       	1               	;
 25              	349.00      	9.71        	1               	;
 26              	388.00      	9.71        	1               	;
 27              	332.00      	37.03       	1               	;
 28              	337.00      	19.71       	1               	;
 29              	340.00      	9.71        	1               	;
 30              	372.00      	9.71        	1               	;
 31              	347.00      	9.71        	1               	;
 32              	347.00      	13.64       	1               	;
 33              	349.00      	9.71        	1               	;
 34              	332.00      	9.71        	1               	;
 35              	325.00      	15.09       	1               	;
 36              	322.00      	9.71        	1               	;
 37              	324.00      	6.46        	1               	;
 38              	355.00      	4.85        	1               	;
 39              	359.00      	4.85        	1               	;
 40              	340.00      	4.85        	1               	;
 41              	333.00      	17.23       	1               	;
 42              	353.00      	9.71        	1               	;
 43              	372.00      	9.71        	1               	;
 44              	337.00      	9.71        	1               	;
 45              	320.00      	9.71        	1               	;
 46              	360.00      	158.06      	1               	;
 47              	395.00      	9.71        	1               	;
 48              	417.00      	4.85        	1               	;
 49              	415.00      	4.85        	1               	;
 50              	377.00      	6.46        	1               	;
 51              	377.00      	8.79        	1               	;
 52              	397.00      	9.71        	1               	;
 53              	420.00      	9.71        	1               	;
 55              	370.00      	37.47       	1               	;
 56              	370.00      	37.47       	1               	;
 57              	392.00      	37.47       	1               	;
 58              	375.00      	37.47       	1               	;
 59              	377.00      	37.47       	1               	;
 60              	341.00      	8.79        	1               	;
 61              	362.00      	37.47       	1               	;
 62              	312.00      	37.47       	1               	;
 63              	316.00      	37.47       	1               	;
 64              	317.00      	37.47       	1               	;
 65              	346.00      	37.47       	1               	;
 66              	349.00      	37.47       	1               	;
 67              	347.00      	37.47       	1               	;
 68              	423.00      	37.47       	2               	;
 69              	354.00      	37.47       	1               	;
 89              	285.00      	42.80       	1               	;
 90              	265.00      	79.21       	1               	;
 91              	225.00      	42.80       	1               	;
 92              	203.00      	42.80       	1               	;
 93              	190.00      	42.80       	1               	;
 94              	230.00      	42.80       	1               	;
 95              	220.00      	42.80       	1               	;
 96              	172.00      	68.06       	1               	;
 97              	172.00      	.00         	1               	;
 98              	240.00      	37.47       	1               	;
 99              	252.00      	37.47       	1               	;
 100             	208.00      	37.47       	1               	;
 101             	253.00      	37.47       	1               	;
 102             	272.00      	37.47       	1               	;
 103             	333.00      	37.47       	1               	;
 104             	355.00      	37.47       	1               	;
 105             	375.00      	37.47       	1               	;
 106             	390.00      	37.47       	1               	;
 107             	328.00      	37.47       	1               	;
 108             	352.00      	37.47       	1               	;
 109             	344.00      	37.47       	1               	;
 110             	332.00      	37.47       	1               	;
 111             	334.00      	49.80       	1               	;
 112             	420.00      	9.71        	1               	;
 113             	330.00      	9.71        	1               	;
 114             	333.00      	7.29        	1               	;
 115             	370.00      	7.29        	1               	;
 116             	393.00      	7.29        	1               	;
 117             	420.00      	7.29        	1               	;
 118             	330.00      	9.71        	1               	;
 119             	375.00      	7.29        	1               	;
 120             	400.00      	9.71        	1               	;
 121             	340.00      	9.71        	1               	;
 122             	395.00      	7.29        	1               	;
 123             	227.00      	42.80       	1               	;
 124             	230.00      	42.80       	1               	;
 125             	445.00      	4.85        	1               	;
 126             	400.00      	4.85        	1               	;
 127             	390.00      	4.85        	1               	;
 128             	340.00      	4.85        	1               	;
 129             	360.00      	4.85        	1               	;
 130             	365.00      	8.79        	1               	;
 131             	350.00      	4.85        	1               	;
 132             	367.00      	8.95        	1               	;
 133             	420.00      	8.95        	1               	;
 134             	417.00      	8.95        	1               	;
 135             	380.00      	7.29        	1               	;
 136             	337.00      	7.29        	1               	;
 150             	297.00      	35.63       	1               	;
 160             	420.00      	6.0         	1               	;11.88      1
 163             	490.        	1.0         	3               	;Lower Yew PS
 167             	420.        	1.0         	4               	;Basalm Lane Pump Station Pumpage

[RESERVOIRS]
;ID              	Head        	Pattern         

[TANKS]
;ID              	Elevation   	InitLevel   	MinLevel    	MaxLevel    	Diameter    	MinVol      	VolCurve
 161             	499.00      	16.02       	0.0         	20.00       	64.0        	0           	                	; Lower Yew Res
 165             	499.00      	17.11       	0.0         	20.00       	92.3        	0           	                	; Dakin Res

[PIPES]
;ID              	Node1           	Node2           	Length      	Diameter    	Roughness   	MinorLoss   	Status
 3               	161             	2               	50.00       	12.00       	78.00       	0           	Open  	;
 4               	2               	3               	3800.00     	12.00       	78.00       	0           	Open  	;
 5               	3               	4               	1620.00     	12.00       	78.00       	0           	Open  	;
 6               	4               	5               	610.00      	8.00        	114.00      	0           	Open  	;
 7               	5               	6               	1080.00     	6.00        	114.00      	0           	Open  	;
 8               	5               	6               	860.00      	6.00        	114.00      	0           	Open  	;
 9               	17              	33              	1770.00     	12.00       	90.00       	0           	Open  	;
 10              	40              	43              	560.00      	6.00        	101.00      	0           	Open  	;
 11              	5               	8               	1150.00     	6.00        	112.00      	0           	Open  	;
 12              	8               	9               	850.00      	6.00        	80.00       	0           	Open  	;
 13              	4               	9               	730.00      	12.00       	78.00       	0           	Open  	;
 14              	9               	10              	250.00      	12.00       	78.00       	0           	Open  	;
 15              	10              	11              	880.00      	12.00       	85.00       	0           	Open  	;
 16              	11              	12              	2000.00     	8.00        	110.00      	0           	Open  	;
 17              	12              	13              	460.00      	8.00        	110.00      	0           	Open  	;
 18              	13              	14              	1760.00     	8.00        	110.00      	0           	Open  	;
 19              	14              	16              	430.00      	6.00        	107.00      	0           	Open  	;
 20              	11              	19              	1080.00     	6.00        	90.00       	0           	Open  	;
 21              	14              	20              	680.00      	6.00        	108.00      	0           	Open  	;
 22              	19              	20              	360.00      	8.00        	105.00      	0           	Open  	;
 23              	42              	43              	330.00      	10.00       	114.00      	0           	Open  	;
 24              	18              	19              	360.00      	8.00        	90.00       	0           	Open  	;
 25              	19              	21              	550.00      	8.00        	110.00      	0           	Open  	;
 26              	21              	22              	440.00      	8.00        	105.00      	0           	Open  	;
 27              	22              	23              	440.00      	8.00        	105.00      	0           	Open  	;
 28              	21              	24              	790.00      	6.00        	90.00       	0           	Open  	;
 29              	18              	24              	790.00      	6.00        	90.00       	0           	Open  	;
 30              	24              	25              	1650.00     	8.00        	90.00       	0           	Open  	;
 31              	25              	26              	820.00      	12.00       	80.00       	0           	Open  	;
 32              	26              	27              	1640.00     	10.00       	110.00      	0           	Open  	;
 33              	27              	28              	1380.00     	6.00        	60.00       	0           	Open  	;
 34              	26              	30              	190.00      	8.00        	80.00       	0           	Open  	;
 35              	29              	30              	800.00      	6.00        	90.00       	0           	Open  	;
 36              	30              	31              	400.00      	8.00        	60.00       	0           	Open  	;
 37              	29              	31              	640.00      	8.00        	90.00       	0           	Open  	;
 38              	25              	31              	550.00      	8.00        	90.00       	0           	Open  	;
 39              	32              	34              	1300.00     	12.00       	85.00       	0           	Open  	;
 40              	32              	33              	550.00      	12.00       	80.00       	0           	Open  	;
 41              	25              	33              	40.00       	12.00       	80.00       	0           	Open  	;
 42              	33              	7               	1440.00     	12.00       	90.00       	0           	Open  	;
 43              	15              	7               	1100.00     	12.00       	90.00       	0           	Open  	;
 44              	1               	15              	1000.00     	16.00       	125.00      	0           	Open  	;
 45              	10              	1001            	1500.00     	16.00       	98.00       	0           	Open  	;
 46              	11              	16              	360.00      	12.00       	90.00       	0           	Open  	;
 47              	55              	67              	330.00      	8.00        	84.00       	0           	Open  	;
 48              	16              	17              	770.00      	12.00       	90.00       	0           	Open  	;
 49              	17              	18              	50.00       	8.00        	90.00       	0           	Open  	;
 50              	103             	15              	700.00      	16.00       	125.00      	0           	Open  	;
 51              	102             	103             	1220.00     	8.00        	109.00      	0           	Open  	;
 52              	101             	102             	380.00      	8.00        	82.00       	0           	Open  	;
 53              	100             	101             	1510.00     	6.00        	80.00       	0           	Open  	;
 54              	99              	100             	340.00      	6.00        	85.00       	0           	Open  	;
 55              	99              	102             	1680.00     	8.00        	85.00       	0           	Open  	;
 56              	99              	102             	2250.00     	6.00        	85.00       	0           	Open  	;
 57              	98              	99              	1060.00     	8.00        	85.00       	0           	Open  	;
 58              	62              	98              	660.00      	8.00        	85.00       	0           	Open  	;
 59              	62              	104             	2760.00     	12.00       	120.00      	0           	Open  	;
 60              	103             	104             	1240.00     	12.00       	110.00      	2.00        	Open  	;
 61              	104             	69              	1150.00     	6.00        	90.00       	0           	Open  	;
 62              	111             	69              	600.00      	8.00        	90.00       	0           	Open  	;
 63              	111             	69              	600.00      	8.00        	90.00       	0           	Open  	;
 64              	110             	111             	890.00      	8.00        	90.00       	0           	Open  	;
 65              	109             	111             	990.00      	8.00        	90.00       	0           	Open  	;
 66              	109             	110             	210.00      	8.00        	90.00       	0           	Open  	;
 67              	106             	109             	780.00      	6.00        	90.00       	0           	Open  	;
 68              	105             	106             	560.00      	4.00        	90.00       	0           	Open  	;
 69              	104             	105             	360.00      	6.00        	90.00       	0           	Open  	;
 70              	104             	107             	1700.00     	6.00        	90.00       	0           	Open  	;
 71              	107             	108             	410.00      	4.00        	68.00       	0           	Open  	;
 72              	106             	108             	620.00      	4.00        	68.00       	0           	Open  	;
 73              	61              	108             	1110.00     	6.00        	90.00       	0           	Open  	;
 74              	62              	107             	1060.00     	6.00        	90.00       	0           	Open  	;
 75              	61              	62              	395.00      	8.00        	85.00       	0           	Open  	;
 76              	58              	61              	340.00      	8.00        	85.00       	0           	Open  	;
 77              	58              	59              	640.00      	8.00        	85.00       	0           	Open  	;
 78              	59              	110             	1090.00     	10.00       	100.00      	0           	Open  	;
 79              	59              	60              	850.00      	8.00        	85.00       	0           	Open  	;
 80              	36              	60              	460.00      	10.00       	77.00       	0           	Open  	;
 81              	35              	36              	1300.00     	12.00       	85.00       	0           	Open  	;
 82              	34              	35              	700.00      	12.00       	85.00       	0           	Open  	;
 83              	29              	34              	710.00      	8.00        	90.00       	0           	Open  	;
 84              	36              	37              	200.00      	8.00        	85.00       	0           	Open  	;
 85              	37              	128             	1000.00     	8.00        	84.00       	0           	Open  	;
 86              	38              	39              	230.00      	8.00        	58.00       	0           	Open  	;
 87              	39              	131             	330.00      	8.00        	90.00       	0           	Open  	;
 88              	40              	41              	320.00      	8.00        	58.00       	0           	Open  	;
 89              	41              	42              	560.00      	6.00        	82.00       	0           	Open  	;
 90              	42              	44              	560.00      	6.00        	83.00       	0           	Open  	;
 91              	44              	45              	560.00      	6.00        	82.00       	0           	Open  	;
 92              	45              	46              	680.00      	6.00        	113.00      	0           	Open  	;
 93              	47              	121             	1520.00     	10.00       	100.00      	0           	Open  	;
 94              	47              	48              	300.00      	10.00       	114.00      	0           	Open  	;
 95              	48              	127             	330.00      	6.00        	107.00      	0           	Open  	;
 96              	48              	125             	650.00      	10.00       	120.00      	0           	Open  	;
 97              	49              	50              	350.00      	6.00        	114.00      	0           	Open  	;
 98              	38              	50              	920.00      	6.00        	90.00       	0           	Open  	;
 99              	37              	50              	980.00      	6.00        	83.00       	0           	Open  	;
 100             	50              	51              	440.00      	6.00        	90.00       	0           	Open  	;
 101             	51              	130             	330.00      	10.00       	77.00       	0           	Open  	;
 102             	51              	52              	335.00      	10.00       	77.00       	0           	Open  	;
 103             	49              	52              	430.00      	10.00       	120.00      	0           	Open  	;
 104             	52              	53              	340.00      	10.00       	80.00       	0           	Open  	;
 105             	112             	53              	1020.00     	10.00       	80.00       	0           	Open  	;
 107             	53              	55              	1360.00     	8.00        	110.00      	0           	Open  	;
 108             	55              	56              	70.00       	6.00        	110.00      	0           	Open  	;
 109             	56              	57              	1700.00     	6.00        	110.00      	0           	Open  	;
 110             	57              	58              	470.00      	6.00        	110.00      	0           	Open  	;
 111             	56              	57              	1520.00     	6.00        	110.00      	0           	Open  	;
 112             	55              	68              	630.00      	8.00        	105.00      	0           	Open  	;
 113             	67              	68              	800.00      	6.00        	103.00      	0           	Open  	;
 114             	66              	67              	90.00       	8.00        	84.00       	0           	Open  	;
 115             	65              	66              	200.00      	8.00        	84.00       	0           	Open  	;
 116             	64              	65              	240.00      	8.00        	84.00       	0           	Open  	;
 117             	63              	66              	820.00      	6.00        	101.00      	0           	Open  	;
 118             	62              	63              	1370.00     	8.00        	106.00      	0           	Open  	;
 119             	63              	64              	490.00      	8.00        	106.00      	0           	Open  	;
 120             	64              	89              	3150.00     	8.00        	84.00       	0           	Open  	;
 121             	89              	90              	2300.00     	8.00        	84.00       	0           	Open  	;
 122             	90              	91              	3000.00     	8.00        	84.00       	0           	Open  	;
 123             	91              	92              	1040.00     	6.00        	88.00       	0           	Open  	;
 124             	92              	93              	2200.00     	10.00       	120.00      	0           	Open  	;
 125             	94              	123             	610.00      	10.00       	120.00      	0           	Open  	;
 126             	92              	94              	780.00      	12.00       	130.00      	0           	Open  	;
 127             	94              	95              	740.00      	12.00       	130.00      	0           	Open  	;
 128             	95              	96              	1770.00     	12.00       	130.00      	0           	Open  	;
 129             	96              	97              	40.00       	12.00       	130.00      	0           	Open  	;
 130             	89              	94              	4400.00     	12.00       	100.00      	0           	Open  	;
 131             	43              	47              	340.00      	10.00       	114.00      	0           	Open  	;
 159             	165             	112             	20.00       	10.00       	110.00      	0           	Open  	;
 161             	113             	114             	2663.00     	8.00        	105.00      	0           	Open  	;
 162             	114             	116             	680.00      	6.00        	80.00       	0           	Open  	;
 163             	118             	136             	1690.00     	6.00        	80.00       	0           	Open  	;
 164             	45              	118             	370.00      	6.00        	80.00       	0           	Open  	;
 165             	95              	124             	600.00      	10.00       	120.00      	0           	Open  	;
 166             	115             	119             	670.00      	10.00       	110.00      	0           	Open  	;
 167             	116             	119             	300.00      	8.00        	110.00      	0           	Open  	;
 168             	123             	124             	1910.00     	8.00        	120.00      	0           	Open  	;
 169             	46              	120             	520.00      	8.00        	110.00      	0           	Open  	;
 170             	120             	135             	2950.00     	10.00       	110.00      	0           	Open  	;
 171             	114             	115             	250.00      	8.00        	110.00      	0           	Open  	;
 172             	46              	121             	950.00      	10.00       	106.00      	0           	Open  	;
 173             	44              	121             	320.00      	6.00        	106.00      	0           	Open  	;
 174             	117             	119             	380.00      	8.00        	106.00      	0           	Open  	;
 175             	115             	122             	300.00      	8.00        	106.00      	0           	Open  	;
 176             	49              	126             	600.00      	10.00       	110.00      	0           	Open  	;
 177             	125             	126             	330.00      	10.00       	110.00      	0           	Open  	;
 178             	126             	127             	660.00      	6.00        	100.00      	0           	Open  	;
 179             	39              	127             	330.00      	6.00        	107.00      	0           	Open  	;
 180             	38              	128             	380.00      	8.00        	110.00      	0           	Open  	;
 181             	128             	129             	570.00      	8.00        	110.00      	0           	Open  	;
 182             	129             	130             	450.00      	8.00        	110.00      	0           	Open  	;
 183             	60              	130             	825.00      	10.00       	80.00       	0           	Open  	;
 184             	37              	129             	650.00      	6.00        	100.00      	0           	Open  	;
 185             	47              	131             	560.00      	8.00        	110.00      	0           	Open  	;
 186             	40              	131             	325.00      	8.00        	100.00      	0           	Open  	;
 187             	8               	132             	1080.00     	6.00        	101.00      	0           	Open  	;
 188             	132             	133             	1190.00     	8.00        	110.00      	0           	Open  	;
 189             	133             	134             	830.00      	8.00        	110.00      	0           	Open  	;
 190             	12              	134             	790.00      	8.00        	110.00      	0           	Open  	;
 191             	117             	122             	650.00      	6.00        	110.00      	0           	Open  	;
 192             	116             	136             	330.00      	6.00        	108.00      	0           	Open  	;
 193             	119             	135             	330.00      	10.00       	110.00      	0           	Open  	;
 194             	135             	136             	420.00      	8.00        	110.00      	0           	Open  	;
 195             	90              	150             	5860.00     	6.00        	110.00      	0           	Open  	;
 196             	150             	160             	10463.00    	4.00        	110.00      	0           	Open  	;
 197             	112             	48              	3802.00     	18.00       	120.00      	0           	Open  	;
 198             	112             	167             	20.         	10.         	120.        	0           	Open  	;
 203             	2               	163             	100.        	12.         	120.        	0           	Open  	;

[PUMPS]
;ID              	Node1           	Node2           	Parameters

[VALVES]
;ID              	Node1           	Node2           	Diameter    	Type	Setting     	MinorLoss   
 4501            	1               	1001            	16.0        	TCV 	3000.0      	0           	;Valve in line south

[TAGS]

[DEMANDS]
;Junction        	Demand      	Pattern         	Category

[STATUS]
;ID              	Status/Setting

[PATTERNS]
;ID              	Multipliers
;Demand Pattern for 8/3/93-8/4/93
 1               	0.75        	0.81        	0.78        	0.93        	0.97        	0.87        
 1               	1.01        	0.94        	0.96        	0.86        	0.96        	0.97        
 1               	1.13        	1.13        	0.97        	0.84        	0.67        	0.57        
 1               	0.47        	0.27        	0.21        	0.39        	0.52        	0.73        
 1               	0.82        	0.78        	0.95        	1.18        	1.09        	1.06        
 1               	1.01        	1.09        	0.99        	0.99        	0.89        	1.08        
;
 2               	1.12        	1.34        	1.28        	1.15        	1.07        	1.00        
 2               	1.06        	1.17        	1.22        	1.42        	1.59        	1.84        
 2               	1.92        	1.66        	1.06        	0.61        	0.35        	0.23        
 2               	0.21        	0.20        	0.25        	0.39        	0.71        	1.15        
;
 3               	0.0         	0.0         	0.0         	0.0         	8.0         	0.0         
 3               	0.0         	0.0         	0.0         	375.        	409.        	406.        
 3               	405.        	402.        	397.        	389.        	384.        	380.        
 3               	376.        	374.        	68.         	0.0         	0.0         	0.0         
 3               	0.0         	0.0         	0.0         	0.0         	0.0         	0.0         
 3               	0.0         	28.         	409.        	405.        	403.        	400.        
;
 4               	207.        	203.        	225.        	230.        	207.        	181.        